/*--------------------------------*- C++ -*----------------------------------*\
| =========                 |                                                 |
| \\      /  F ield         | OpenFOAM: The Open Source CFD Toolbox           |
|  \\    /   O peration     | Version:  2.3.1                                 |
|   \\  /    A nd           | Web:      www.OpenFOAM.org                      |
|    \\/     M anipulation  |                                                 |
\*---------------------------------------------------------------------------*/
FoamFile
{
    version     2.0;
    format      ascii;
    class       extendedFeatureEdgeMesh;
    location    "constant/extendedFeatureEdgeMesh";
    object      surfacemesh.extendedFeatureEdgeMesh;
}
// * * * * * * * * * * * * * * * * * * * * * * * * * * * * * * * * * * * * * //

// points

154
(
(0.599846 -0.100161 -0.96)
(0.599846 -0.100161 0.96)
(0.862157 0.206249 -0.96)
(0.86324 0.205686 -0.96)
(0.860976 0.206557 -0.96)
(0.225 -0.15 -0.96)
(0.225151 -0.147257 -0.96)
(0.225756 -0.143899 -0.96)
(0.859686 0.20659 -0.96)
(0.858389 0.206308 -0.96)
(0.81844 0.145466 -0.96)
(0.855476 0.203916 -0.96)
(0.24451 -0.12561 -0.96)
(0.244769 -0.125553 -0.96)
(0.239756 -0.127195 -0.96)
(0.239724 -0.127209 -0.96)
(0.856208 0.204893 -0.96)
(0.226162 -0.142467 -0.96)
(0.227871 -0.138368 -0.96)
(0.857197 0.205721 -0.96)
(0.865662 0.201255 -0.96)
(0.865551 0.20004 -0.96)
(0.2352 -0.129851 -0.96)
(0.625105 -0.0983903 -0.96)
(0.58052 -0.122682 -0.96)
(0.235029 -0.129978 -0.96)
(0.527862 -0.142405 -0.96)
(0.782687 0.0704625 -0.96)
(0.732419 6.78114e-05 -0.96)
(0.690614 -0.0502191 -0.96)
(0.464851 -0.157468 -0.96)
(0.657565 -0.0809703 -0.96)
(0.640594 -0.0920642 -0.96)
(0.450119 -0.124628 -0.96)
(0.526544 -0.115092 -0.96)
(0.228206 -0.137751 -0.96)
(0.230965 -0.133792 -0.96)
(0.23127 -0.133441 -0.96)
(0.661192 -0.0364116 -0.96)
(0.719043 0.0210202 -0.96)
(0.386948 -0.168085 -0.96)
(0.363791 -0.128223 -0.96)
(0.320765 -0.172839 -0.96)
(0.598586 -0.0987852 -0.96)
(0.597679 -0.0971111 -0.96)
(0.597318 -0.0959001 -0.96)
(0.597214 -0.0952849 -0.96)
(0.243899 -0.174244 -0.96)
(0.23888 -0.172391 -0.96)
(0.244178 -0.174313 -0.96)
(0.238368 -0.172129 -0.96)
(0.597161 -0.0946715 -0.96)
(0.597202 -0.0934336 -0.96)
(0.5973 -0.0928109 -0.96)
(0.233792 -0.169034 -0.96)
(0.230648 -0.165827 -0.96)
(0.234439 -0.169567 -0.96)
(0.229978 -0.164971 -0.96)
(0.263694 -0.125 -0.96)
(0.25 -0.175 -0.96)
(0.59765 -0.0915897 -0.96)
(0.597899 -0.0910039 -0.96)
(0.59836 -0.0901729 -0.96)
(0.598534 -0.0899112 -0.96)
(0.599322 -0.0889553 -0.96)
(0.777454 0.0893713 -0.96)
(0.22776 -0.161419 -0.96)
(0.227195 -0.160244 -0.96)
(0.225905 -0.156666 -0.96)
(0.225553 -0.155231 -0.96)
(0.25 -0.125 -0.96)
(0.225134 -0.152581 -0.96)
(0.225072 -0.151895 -0.96)
(0.865484 0.202533 -0.96)
(0.864993 0.203767 -0.96)
(0.247292 -0.125147 -0.96)
(0.247419 -0.125134 -0.96)
(0.864219 0.204846 -0.96)
(0.25 -0.125 0.96)
(0.263694 -0.125 0.96)
(0.520308 -0.116104 0.96)
(0.437061 -0.125634 0.96)
(0.352049 -0.128207 0.96)
(0.598973 -0.0992826 0.96)
(0.598195 -0.0904427 0.96)
(0.599322 -0.0889553 0.96)
(0.597449 -0.0921941 0.96)
(0.597202 -0.0934336 0.96)
(0.597156 -0.0940558 0.96)
(0.597161 -0.0946715 0.96)
(0.597318 -0.0959001 0.96)
(0.597473 -0.096511 0.96)
(0.597935 -0.0976941 0.96)
(0.598239 -0.098254 0.96)
(0.598775 -0.0990384 0.96)
(0.65232 -0.0444662 0.96)
(0.702457 0.00362493 0.96)
(0.762422 0.0706173 0.96)
(0.811639 0.1356 0.96)
(0.855476 0.203916 0.96)
(0.865662 0.201255 0.96)
(0.865551 0.20004 0.96)
(0.865484 0.202533 0.96)
(0.864993 0.203767 0.96)
(0.864219 0.204846 0.96)
(0.86324 0.205686 0.96)
(0.862157 0.206249 0.96)
(0.860976 0.206557 0.96)
(0.859686 0.20659 0.96)
(0.858389 0.206308 0.96)
(0.857197 0.205721 0.96)
(0.856208 0.204893 0.96)
(0.690013 -0.0508633 0.96)
(0.661579 -0.0778163 0.96)
(0.642422 -0.0910598 0.96)
(0.625105 -0.0983903 0.96)
(0.731481 -0.001159 0.96)
(0.795403 0.0894318 0.96)
(0.359931 -0.170402 0.96)
(0.25 -0.175 0.96)
(0.448352 -0.160312 0.96)
(0.513622 -0.146495 0.96)
(0.564829 -0.129413 0.96)
(0.596658 -0.114859 0.96)
(0.239756 -0.172805 0.96)
(0.239724 -0.17279 0.96)
(0.225 -0.15 0.96)
(0.225072 -0.148105 0.96)
(0.24451 -0.17439 0.96)
(0.244769 -0.174447 0.96)
(0.247292 -0.174853 0.96)
(0.230648 -0.134173 0.96)
(0.233792 -0.130966 0.96)
(0.225151 -0.152743 0.96)
(0.247419 -0.174866 0.96)
(0.229978 -0.135029 0.96)
(0.243899 -0.125756 0.96)
(0.244178 -0.125687 0.96)
(0.225756 -0.156101 0.96)
(0.22776 -0.138581 0.96)
(0.226162 -0.157533 0.96)
(0.23888 -0.127609 0.96)
(0.227871 -0.161632 0.96)
(0.227195 -0.139756 0.96)
(0.228206 -0.162249 0.96)
(0.238368 -0.127871 0.96)
(0.225905 -0.143334 0.96)
(0.230965 -0.166208 0.96)
(0.23127 -0.166559 0.96)
(0.225553 -0.144769 0.96)
(0.234439 -0.130433 0.96)
(0.235029 -0.170022 0.96)
(0.2352 -0.170149 0.96)
(0.225134 -0.147419 0.96)
)

// edges

155
(
(2 3)
(4 2)
(5 6)
(6 7)
(8 4)
(9 8)
(10 11)
(12 13)
(14 12)
(15 14)
(11 16)
(17 18)
(7 17)
(19 9)
(16 19)
(20 21)
(22 15)
(23 24)
(25 22)
(24 26)
(27 28)
(28 29)
(26 30)
(29 31)
(31 32)
(33 34)
(18 35)
(36 37)
(35 36)
(38 39)
(37 25)
(30 40)
(34 0)
(41 33)
(40 42)
(0 43)
(43 44)
(45 46)
(44 45)
(47 48)
(49 47)
(48 50)
(46 51)
(52 53)
(51 52)
(54 55)
(56 54)
(55 57)
(58 41)
(42 59)
(53 60)
(60 61)
(61 62)
(63 64)
(62 63)
(32 23)
(64 38)
(39 65)
(50 56)
(57 66)
(65 10)
(66 67)
(68 69)
(67 68)
(21 27)
(70 58)
(69 71)
(72 5)
(71 72)
(73 20)
(74 73)
(75 76)
(76 70)
(59 49)
(77 74)
(3 77)
(13 75)
(78 79)
(80 1)
(81 80)
(82 81)
(79 82)
(1 83)
(84 85)
(86 84)
(87 86)
(88 87)
(89 88)
(90 89)
(91 90)
(92 91)
(93 92)
(94 93)
(83 94)
(85 95)
(95 96)
(96 97)
(97 98)
(98 99)
(100 101)
(102 100)
(103 102)
(104 103)
(105 104)
(106 105)
(107 106)
(108 107)
(109 108)
(110 109)
(111 110)
(99 111)
(112 113)
(114 115)
(113 114)
(116 112)
(117 116)
(101 117)
(118 119)
(120 118)
(121 120)
(122 121)
(123 122)
(115 123)
(124 125)
(126 127)
(128 124)
(129 128)
(130 129)
(131 132)
(133 126)
(134 130)
(119 134)
(135 131)
(136 137)
(138 133)
(139 135)
(140 138)
(141 136)
(142 140)
(143 139)
(144 142)
(145 141)
(146 143)
(147 144)
(148 147)
(149 146)
(150 145)
(151 148)
(152 151)
(153 149)
(127 153)
(125 152)
(132 150)
(137 78)
(1 0)
)

// concaveStart mixedStart nonFeatureStart
0 0 2
// internalStart flatStart openStart multipleStart
154 155 155 155
// normals

274
(
(0 0 -1)
(0.460954 0.887424 -0)
(0.25282 0.967513 -0)
(0 0 -1)
(-0.998488 0.054965 -1.68571e-05)
(-0.984161 0.177277 -2.34547e-05)
(0 0 -1)
(0.025664 0.999671 -0)
(-0.212558 0.977149 0)
(0 -0 -1)
(-0.844706 0.535231 0)
(0 0 -1)
(-0.214534 0.976716 2.13235e-06)
(-0.316258 0.948673 -2.87472e-05)
(0 0 -1)
(-0.410558 0.911835 9.33621e-06)
(0 -0 -1)
(-0.800012 0.599984 0)
(0 0 -1)
(-0.923001 0.384798 -4.66468e-05)
(-0.962055 0.272856 -5.46014e-06)
(0 0 -1)
(-0.441757 0.897135 0)
(-0.642245 0.766499 0)
(0 0 -1)
(0.995847 -0.0910477 0)
(0 0 -1)
(-0.504281 0.86354 -5.87513e-05)
(0 -0 -1)
(0.478432 -0.878125 -0.000443255)
(0 -0 -1)
(-0.595399 0.80343 7.41157e-06)
(0 0 -1)
(0.35076 -0.936465 -0.000416621)
(0 0 -1)
(0.813797 -0.581128 -0.00497031)
(0 -0 -1)
(0.768883 -0.639196 -0.0157572)
(0 0 -1)
(0.232508 -0.972594 -0.000347336)
(0 -0 -1)
(0.681149 -0.732031 -0.0128845)
(0 0 -1)
(0.547147 -0.837032 0.00278296)
(0 0 -1)
(-0.123816 0.992305 0.000120835)
(0 0 -1)
(-0.878548 0.477654 2.38688e-06)
(0 0 -1)
(-0.755223 0.655468 5.03805e-06)
(-0.820396 0.571796 -5.35172e-05)
(0 0 -1)
(-0.704535 0.709669 0.000343713)
(0 -0 -1)
(-0.677565 0.735463 -5.82759e-05)
(0 0 -1)
(0.135024 -0.990842 -0.000307129)
(0 0 -1)
(-0.19959 0.97988 0)
(0 0 -1)
(-0.041607 0.999134 0.000240722)
(0 -0 -1)
(0.0716515 -0.99743 -0.000195505)
(0 0 -1)
(-0.737283 -0.675584 -2.64209e-05)
(0 0 -1)
(-0.879349 -0.476177 -2.73783e-05)
(0 0 -1)
(-0.98604 -0.166509 0)
(-0.958216 -0.286045 -1.35458e-05)
(0 0 -1)
(-0.34643 -0.938076 -4.42821e-05)
(-0.238289 -0.971194 2.20974e-06)
(0 0 -1)
(-0.454988 -0.890498 1.46506e-05)
(0 0 -1)
(-0.996231 -0.0867424 0)
(0 0 -1)
(-0.987974 0.154618 0)
(-0.999429 0.0337817 -1.30044e-05)
(0 0 -1)
(-0.714095 -0.700049 -3.53739e-05)
(-0.635473 -0.772123 1.23145e-05)
(0 0 -1)
(-0.787653 -0.616119 8.13235e-06)
(0 0 -1)
(0.0321782 0.999482 0.000188861)
(0 -0 -1)
(0.0305248 -0.999534 0)
(0 0 -1)
(-0.961372 0.275253 -1.36895e-05)
(0 0 -1)
(-0.919987 0.39195 2.73094e-05)
(0 0 -1)
(-0.874708 0.484651 -6.77266e-06)
(0 0 -1)
(-0.771785 0.635883 0)
(-0.831861 0.554984 6.77632e-06)
(0 0 -1)
(0.378108 -0.925757 -0.00297568)
(0 0 -1)
(-0.647316 0.762221 0.000206236)
(0 -0 -1)
(-0.760221 0.649664 0.000393888)
(0 0 -1)
(-0.546264 -0.837613 -3.72608e-05)
(0 0 -1)
(-0.848212 -0.529657 -3.1907e-05)
(0 0 -1)
(-0.807431 0.589962 0.000171408)
(0 0 -1)
(-0.901205 -0.433392 3.83792e-06)
(0 0 -1)
(-0.971241 -0.238097 -5.47318e-06)
(-0.94073 -0.339157 -2.73312e-05)
(0 0 -1)
(0.842385 -0.538699 -0.0137726)
(0 0 -1)
(0 1 0)
(0 0 -1)
(-0.987683 -0.156468 -4.2492e-06)
(0 0 -1)
(-0.999281 -0.0379177 0)
(-0.995981 -0.0895662 1.47104e-06)
(0 0 -1)
(0.990393 0.138282 0)
(0.929154 0.369692 -0)
(0 0 -1)
(-0.105619 0.994407 7.27955e-05)
(-0.0516913 0.998663 0)
(0 -0 -1)
(-0.117251 -0.993102 -8.93031e-05)
(0 0 -1)
(0.812765 0.582592 -0)
(0.651061 0.759026 -0)
(0 0 -1)
(-0.159001 0.987278 1.99638e-05)
(-0 1 0)
(0 0 1)
(-0.196532 0.980497 -0.000121533)
(0 0 1)
(-0.11374 0.99351 -0.000252845)
(0 0 1)
(-0.0302575 0.999542 -0.000192941)
(0 0 1)
(0.0362771 0.999342 0)
(0 0 1)
(-0.708996 -0.705212 0)
(0 0 1)
(-0.797163 0.603764 2.64025e-05)
(0 0 1)
(-0.920009 0.391897 2.73472e-05)
(0 0 1)
(-0.980762 0.195209 1.35306e-05)
(0 0 1)
(-0.997277 0.0737494 0)
(-0.999977 -0.00677672 0)
(0 0 1)
(-0.991903 -0.126994 1.29791e-05)
(0 0 1)
(-0.969204 -0.246261 0)
(-0.931442 -0.363891 1.36631e-05)
(0 0 1)
(-0.879295 -0.476277 -2.73028e-05)
(0 0 1)
(-0.825591 -0.564269 6.75391e-06)
(0 0 1)
(-0.776422 -0.630214 -6.77687e-06)
(-0.642944 0.765913 0)
(0 0 1)
(-0.692224 0.721682 -0.000171362)
(0 0 1)
(-0.745109 0.666943 -0.000393876)
(0 0 1)
(-0.797164 0.603763 -0.000343695)
(0 0 1)
(-0.84163 0.540055 -0.000206191)
(0 0 1)
(0.995847 -0.0910477 0)
(0 0 1)
(0.990393 0.138282 -0)
(0 0 1)
(0.929154 0.369692 -0)
(0.812765 0.582592 -0)
(0 0 1)
(0.651061 0.759026 -0)
(0.460954 0.887424 -0)
(0 0 1)
(0.25282 0.967513 -0)
(0.025664 0.999671 -0)
(0 0 1)
(-0.212558 0.977149 0)
(-0.441757 0.897135 0)
(0 0 1)
(-0.642245 0.766499 0)
(-0.800012 0.599984 0)
(0 0 1)
(0.687933 -0.72572 0.00889589)
(0 0 1)
(0.389803 -0.920861 0.00834158)
(0 0 1)
(0.568639 -0.822538 -0.008944)
(0 0 1)
(0.767757 -0.640541 0.0160522)
(0 0 1)
(0.816647 -0.576233 0.0322862)
(0 0 1)
(0.844485 -0.535578 -0.00105264)
(0 0 1)
(0.0417923 -0.999126 0.000415743)
(0 0 1)
(0.113374 -0.993552 0.00039625)
(0 0 1)
(0.2071 -0.97832 0.000330787)
(0 0 1)
(0.316443 -0.948611 0.00032629)
(0 0 1)
(0.415861 -0.909428 0.000210206)
(0 0 1)
(0.501007 -0.865443 0)
(0 0 1)
(-0.410558 -0.911835 -9.33621e-06)
(0 0 1)
(-0.999281 0.0379174 0)
(0 0 1)
(-0.316258 -0.948673 2.87546e-05)
(0 0 1)
(-0.214534 -0.976716 -2.12477e-06)
(-0.159001 -0.987278 -1.99561e-05)
(0 0 1)
(-0.714095 0.700049 3.53685e-05)
(0 0 1)
(-0.998488 -0.054965 1.68567e-05)
(0 0 1)
(-0.105619 -0.994407 -7.27955e-05)
(0 0 1)
(-0.0516913 -0.998663 0)
(-0.787653 0.616119 -8.13235e-06)
(0 0 1)
(-0.238289 0.971194 -2.20221e-06)
(0 0 1)
(-0.984161 -0.177278 2.34543e-05)
(-0.848213 0.529655 3.19102e-05)
(0 0 1)
(-0.962055 -0.272856 5.46014e-06)
(0 0 1)
(-0.346427 0.938077 4.42834e-05)
(-0.923001 -0.384798 4.66468e-05)
(-0.901203 0.433397 -3.83393e-06)
(0 0 1)
(-0.878548 -0.477654 -2.38317e-06)
(0 0 1)
(-0.454988 0.890498 -1.46506e-05)
(0 0 1)
(-0.94073 0.339157 2.73312e-05)
(0 0 1)
(-0.820396 -0.571796 5.35172e-05)
(0 0 1)
(-0.755236 -0.655453 -5.03263e-06)
(-0.971241 0.238097 5.47318e-06)
(-0.546264 0.837613 3.72543e-05)
(0 0 1)
(-0.677564 -0.735464 5.82742e-05)
(0 0 1)
(-0.595445 -0.803396 -7.38982e-06)
(0 0 1)
(-0.987683 0.156468 4.24799e-06)
(0 0 1)
(-0.995981 0.0895662 -1.47173e-06)
(-0.504279 -0.863541 5.87494e-05)
(0 0 1)
(-0.635473 0.772123 -1.23145e-05)
(-0.117254 0.993102 8.93067e-05)
(0 0 1)
)

// normal volume types

274
(
0
0
0
0
0
0
0
0
0
0
0
0
0
0
0
0
0
0
0
0
0
0
0
0
0
0
0
0
0
0
0
0
0
0
0
0
0
0
0
0
0
0
0
0
0
0
0
0
0
0
0
0
0
0
0
0
0
0
0
0
0
0
0
0
0
0
0
0
0
0
0
0
0
0
0
0
0
0
0
0
0
0
0
0
0
0
0
0
0
0
0
0
0
0
0
0
0
0
0
0
0
0
0
0
0
0
0
0
0
0
0
0
0
0
0
0
0
0
0
0
0
0
0
0
0
0
0
0
0
0
0
0
0
0
0
0
0
0
0
0
0
0
0
0
0
0
0
0
0
0
0
0
0
0
0
0
0
0
0
0
0
0
0
0
0
0
0
0
0
0
0
0
0
0
0
0
0
0
0
0
0
0
0
0
0
0
0
0
0
0
0
0
0
0
0
0
0
0
0
0
0
0
0
0
0
0
0
0
0
0
0
0
0
0
0
0
0
0
0
0
0
0
0
0
0
0
0
0
0
0
0
0
0
0
0
0
0
0
0
0
0
0
0
0
0
0
0
0
0
0
0
0
0
0
0
0
0
0
0
0
0
0
0
0
0
0
0
0
0
0
0
0
0
0
)

// normalDirections

155
(
2(1 -1)
2(1 -1)
2(1 -1)
2(1 -1)
2(1 -1)
2(1 -1)
2(1 -1)
2(1 -1)
2(1 -1)
2(1 -1)
2(1 -1)
2(1 -1)
2(1 -1)
2(1 -1)
2(1 -1)
2(1 -1)
2(1 -1)
2(1 -1)
2(1 -1)
2(1 -1)
2(1 -1)
2(1 -1)
2(1 -1)
2(1 -1)
2(1 -1)
2(1 -1)
2(1 -1)
2(1 -1)
2(1 -1)
2(1 -1)
2(1 -1)
2(1 -1)
2(1 -1)
2(1 -1)
2(1 -1)
2(1 -1)
2(1 -1)
2(1 -1)
2(1 -1)
2(1 -1)
2(1 -1)
2(1 -1)
2(1 -1)
2(1 -1)
2(1 -1)
2(1 -1)
2(1 -1)
2(1 -1)
2(1 -1)
2(1 -1)
2(1 -1)
2(1 -1)
2(1 -1)
2(1 -1)
2(1 -1)
2(1 -1)
2(1 -1)
2(1 -1)
2(1 -1)
2(1 -1)
2(1 -1)
2(1 -1)
2(1 -1)
2(1 -1)
2(1 -1)
2(1 -1)
2(1 -1)
2(1 -1)
2(1 -1)
2(1 -1)
2(1 -1)
2(1 -1)
2(1 -1)
2(1 -1)
2(1 -1)
2(1 -1)
2(1 -1)
2(1 -1)
2(1 -1)
2(1 -1)
2(1 -1)
2(1 -1)
2(1 -1)
2(1 -1)
2(1 -1)
2(1 -1)
2(1 -1)
2(1 -1)
2(1 -1)
2(1 -1)
2(1 -1)
2(1 -1)
2(1 -1)
2(1 -1)
2(1 -1)
2(1 -1)
2(1 -1)
2(1 -1)
2(1 -1)
2(1 -1)
2(1 -1)
2(1 -1)
2(1 -1)
2(1 -1)
2(1 -1)
2(1 -1)
2(1 -1)
2(1 -1)
2(1 -1)
2(1 -1)
2(1 -1)
2(1 -1)
2(1 -1)
2(1 -1)
2(1 -1)
2(1 -1)
2(1 -1)
2(1 -1)
2(1 -1)
2(1 -1)
2(1 -1)
2(1 -1)
2(1 -1)
2(1 -1)
2(1 -1)
2(1 -1)
2(1 -1)
2(1 -1)
2(1 -1)
2(1 -1)
2(1 -1)
2(1 -1)
2(1 -1)
2(1 -1)
2(1 -1)
2(1 -1)
2(1 -1)
2(1 -1)
2(1 -1)
2(1 -1)
2(1 -1)
2(1 -1)
2(1 -1)
2(1 -1)
2(1 -1)
2(1 -1)
2(1 -1)
2(1 -1)
2(1 -1)
2(1 -1)
2(1 -1)
2(1 -1)
2(1 -1)
2(1 -1)
2(1 -1)
)

// edgeNormals

155
(
2(0 1)
2(0 2)
2(3 4)
2(3 5)
2(6 7)
2(6 8)
2(9 10)
2(11 12)
2(11 13)
2(14 15)
2(16 17)
2(18 19)
2(18 20)
2(21 22)
2(21 23)
2(24 25)
2(26 27)
2(28 29)
2(30 31)
2(32 33)
2(34 35)
2(36 37)
2(38 39)
2(40 41)
2(42 43)
2(44 45)
2(46 47)
2(48 49)
2(48 50)
2(51 52)
2(53 54)
2(55 56)
2(57 58)
2(59 60)
2(61 62)
2(63 64)
2(65 66)
2(67 68)
2(67 69)
2(70 71)
2(70 72)
2(73 74)
2(75 76)
2(77 78)
2(77 79)
2(80 81)
2(80 82)
2(83 84)
2(85 86)
2(87 88)
2(89 90)
2(91 92)
2(93 94)
2(95 96)
2(95 97)
2(98 99)
2(100 101)
2(102 103)
2(104 105)
2(106 107)
2(108 109)
2(110 111)
2(112 113)
2(112 114)
2(115 116)
2(117 118)
2(119 120)
2(121 122)
2(121 123)
2(124 125)
2(124 126)
2(127 128)
2(127 129)
2(130 131)
2(132 133)
2(132 134)
2(135 136)
2(137 138)
2(139 140)
2(141 142)
2(143 144)
2(145 146)
2(147 148)
2(149 150)
2(151 152)
2(153 154)
2(155 154)
2(156 157)
2(158 159)
2(160 159)
2(161 162)
2(163 164)
2(165 166)
2(167 148)
2(168 169)
2(170 171)
2(172 173)
2(174 175)
2(176 177)
2(178 179)
2(180 181)
2(182 181)
2(183 184)
2(185 184)
2(186 187)
2(188 187)
2(189 190)
2(191 190)
2(192 193)
2(194 193)
2(195 196)
2(197 198)
2(199 200)
2(201 202)
2(203 204)
2(205 206)
2(207 208)
2(209 210)
2(211 212)
2(213 214)
2(215 216)
2(217 218)
2(219 220)
2(221 222)
2(223 224)
2(225 226)
2(227 226)
2(228 229)
2(230 231)
2(232 233)
2(234 235)
2(236 235)
2(237 238)
2(239 240)
2(241 233)
2(242 243)
2(244 245)
2(246 240)
2(247 245)
2(248 249)
2(250 251)
2(252 253)
2(254 255)
2(256 257)
2(258 257)
2(259 255)
2(260 261)
2(262 263)
2(264 265)
2(266 267)
2(268 224)
2(269 270)
2(271 231)
2(272 273)
2(58 147)
)

// featurePointNormals

2
(
4(57 58 64 147)
4(139 140 147 58)
)

// featurePointEdges

2
(
3(32 154 35)
3(78 82 154)
)

// regionEdges
0()


// ************************************************************************* //
