/*--------------------------------*- C++ -*----------------------------------*\
| =========                 |                                                 |
| \\      /  F ield         | OpenFOAM: The Open Source CFD Toolbox           |
|  \\    /   O peration     | Version:  2.3.1                                 |
|   \\  /    A nd           | Web:      www.OpenFOAM.org                      |
|    \\/     M anipulation  |                                                 |
\*---------------------------------------------------------------------------*/
FoamFile
{
    version     2.0;
    format      ascii;
    class       featureEdgeMesh;
    location    "constant/triSurface";
    object      surfacemesh.eMesh;
}
// * * * * * * * * * * * * * * * * * * * * * * * * * * * * * * * * * * * * * //


// points:

272
(
(459.099 164.454 0)
(459.099 164.454 0.001)
(275 -75 0)
(275 -75 0.001)
(454.874 154.631 0)
(454.874 154.631 0.001)
(450.327 144.953 0)
(450.327 144.953 0.001)
(445.464 135.43 0)
(445.464 135.43 0.001)
(440.29 126.072 0)
(440.29 126.072 0.001)
(434.81 116.89 0)
(434.81 116.89 0.001)
(429.03 107.894 0)
(429.03 107.894 0.001)
(422.956 99.093 0)
(422.956 99.093 0.001)
(416.596 90.4972 0)
(416.596 90.4972 0.001)
(409.956 82.1157 0)
(409.956 82.1157 0.001)
(403.043 73.9576 0)
(403.043 73.9576 0.001)
(395.865 66.0319 0)
(395.865 66.0319 0.001)
(388.43 58.3471 0)
(388.43 58.3471 0.001)
(380.745 50.9117 0)
(380.745 50.9117 0.001)
(372.819 43.7336 0)
(372.819 43.7336 0.001)
(364.661 36.8208 0)
(364.661 36.8208 0.001)
(356.28 30.1806 0)
(356.28 30.1806 0.001)
(347.684 23.8204 0)
(347.684 23.8204 0.001)
(338.883 17.7471 0)
(338.883 17.7471 0.001)
(329.886 11.9671 0)
(329.886 11.9671 0.001)
(320.704 6.48695 0)
(320.704 6.48695 0.001)
(311.347 1.31245 0)
(311.347 1.31245 0.001)
(301.824 -3.55073 0)
(301.824 -3.55073 0.001)
(292.145 -8.0973 0)
(292.145 -8.0973 0.001)
(282.322 -12.3223 0)
(282.322 -12.3223 0.001)
(317.678 -47.6777 0)
(328.236 -36.8892 0)
(328.236 -36.8892 0.001)
(317.678 -47.6777 0.001)
(338.54 -25.8574 0)
(338.54 -25.8574 0.001)
(348.584 -14.5882 0)
(348.584 -14.5882 0.001)
(358.363 -3.08786 0)
(358.363 -3.08786 0.001)
(367.87 8.63749 0)
(367.87 8.63749 0.001)
(377.101 20.5814 0)
(377.101 20.5814 0.001)
(386.051 32.7374 0)
(386.051 32.7374 0.001)
(394.716 45.0989 0)
(394.716 45.0989 0.001)
(403.089 57.6591 0)
(403.089 57.6591 0.001)
(411.167 70.4113 0)
(411.167 70.4113 0.001)
(418.946 83.3484 0)
(418.946 83.3484 0.001)
(426.421 96.4634 0)
(426.421 96.4634 0.001)
(433.587 109.749 0)
(433.587 109.749 0.001)
(440.442 123.199 0)
(440.442 123.199 0.001)
(446.981 136.804 0)
(446.981 136.804 0.001)
(453.201 150.559 0)
(453.201 150.559 0.001)
(280.39 -14.4941 0)
(280.39 -14.4941 0.001)
(278.722 -16.8756 0)
(278.722 -16.8756 0.001)
(277.342 -19.4345 0)
(277.342 -19.4345 0.001)
(276.269 -22.1364 0)
(276.269 -22.1364 0.001)
(275.516 -24.9446 0)
(275.516 -24.9446 0.001)
(275.095 -27.8211 0)
(275.095 -27.8211 0.001)
(275.011 -30.7271 0)
(275.011 -30.7271 0.001)
(275.264 -33.6233 0)
(275.264 -33.6233 0.001)
(275.852 -36.4705 0)
(275.852 -36.4705 0.001)
(276.766 -39.2302 0)
(276.766 -39.2302 0.001)
(277.995 -41.865 0)
(277.995 -41.865 0.001)
(279.521 -44.3394 0)
(279.521 -44.3394 0.001)
(281.324 -46.6199 0)
(281.324 -46.6199 0.001)
(283.38 -48.6756 0)
(283.38 -48.6756 0.001)
(285.661 -50.4788 0)
(285.661 -50.4788 0.001)
(288.135 -52.005 0)
(288.135 -52.005 0.001)
(290.77 -53.2337 0)
(290.77 -53.2337 0.001)
(293.53 -54.1481 0)
(293.53 -54.1481 0.001)
(296.377 -54.736 0)
(296.377 -54.736 0.001)
(299.273 -54.9894 0)
(299.273 -54.9894 0.001)
(302.179 -54.9049 0)
(302.179 -54.9049 0.001)
(305.055 -54.4835 0)
(305.055 -54.4835 0.001)
(307.864 -53.7311 0)
(307.864 -53.7311 0.001)
(310.565 -52.6577 0)
(310.565 -52.6577 0.001)
(313.124 -51.2779 0)
(313.124 -51.2779 0.001)
(315.506 -49.6104 0)
(315.506 -49.6104 0.001)
(265.067 -78.9583 0)
(265.067 -78.9583 0.001)
(255.008 -82.587 0)
(255.008 -82.587 0.001)
(244.835 -85.8821 0)
(244.835 -85.8821 0.001)
(234.56 -88.8401 0)
(234.56 -88.8401 0.001)
(224.192 -91.4577 0)
(224.192 -91.4577 0.001)
(213.743 -93.732 0)
(213.743 -93.732 0.001)
(203.226 -95.6606 0)
(203.226 -95.6606 0.001)
(192.65 -97.2415 0)
(192.65 -97.2415 0.001)
(182.028 -98.4728 0)
(182.028 -98.4728 0.001)
(171.372 -99.3533 0)
(171.372 -99.3533 0.001)
(160.692 -99.882 0)
(160.692 -99.882 0.001)
(150 -100.058 0)
(150 -100.058 0.001)
(139.308 -99.882 0)
(139.308 -99.882 0.001)
(128.628 -99.3533 0)
(128.628 -99.3533 0.001)
(117.972 -98.4728 0)
(117.972 -98.4728 0.001)
(107.35 -97.2415 0)
(107.35 -97.2415 0.001)
(96.7742 -95.6606 0)
(96.7742 -95.6606 0.001)
(86.2565 -93.732 0)
(86.2565 -93.732 0.001)
(75.8082 -91.4577 0)
(75.8082 -91.4577 0.001)
(65.4404 -88.8401 0)
(65.4404 -88.8401 0.001)
(55.1646 -85.8821 0)
(55.1646 -85.8821 0.001)
(44.992 -82.587 0)
(44.992 -82.587 0.001)
(34.9334 -78.9583 0)
(34.9334 -78.9583 0.001)
(25 -75 0)
(25 -75 0.001)
(25 -125 0)
(40.0946 -124.837 0)
(40.0946 -124.837 0.001)
(25 -125 0.001)
(55.1814 -124.323 0)
(55.1814 -124.323 0.001)
(70.252 -123.456 0)
(70.252 -123.456 0.001)
(85.2983 -122.239 0)
(85.2983 -122.239 0.001)
(100.312 -120.67 0)
(100.312 -120.67 0.001)
(115.285 -118.752 0)
(115.285 -118.752 0.001)
(130.21 -116.485 0)
(130.21 -116.485 0.001)
(145.077 -113.871 0)
(145.077 -113.871 0.001)
(159.879 -110.911 0)
(159.879 -110.911 0.001)
(174.609 -107.606 0)
(174.609 -107.606 0.001)
(189.257 -103.958 0)
(189.257 -103.958 0.001)
(203.816 -99.9697 0)
(203.816 -99.9697 0.001)
(218.278 -95.6429 0)
(218.278 -95.6429 0.001)
(232.635 -90.9798 0)
(232.635 -90.9798 0.001)
(246.88 -85.9832 0)
(246.88 -85.9832 0.001)
(261.004 -80.6556 0)
(261.004 -80.6556 0.001)
(22.0977 -75.169 0)
(22.0977 -75.169 0.001)
(19.2346 -75.6739 0)
(19.2346 -75.6739 0.001)
(16.4495 -76.5077 0)
(16.4495 -76.5077 0.001)
(13.78 -77.6592 0)
(13.78 -77.6592 0.001)
(11.2623 -79.1128 0)
(11.2623 -79.1128 0.001)
(8.93031 -80.8489 0)
(8.93031 -80.8489 0.001)
(6.81566 -82.844 0)
(6.81566 -82.844 0.001)
(4.94692 -85.071 0)
(4.94692 -85.071 0.001)
(3.34936 -87.5 0)
(3.34936 -87.5 0.001)
(2.0446 -90.098 0)
(2.0446 -90.098 0.001)
(1.05026 -92.8299 0)
(1.05026 -92.8299 0.001)
(0.379806 -95.6588 0)
(0.379806 -95.6588 0.001)
(0.042296 -98.5464 0)
(0.042296 -98.5464 0.001)
(0.042296 -101.454 0)
(0.042296 -101.454 0.001)
(0.379806 -104.341 0)
(0.379806 -104.341 0.001)
(1.05026 -107.17 0)
(1.05026 -107.17 0.001)
(2.0446 -109.902 0)
(2.0446 -109.902 0.001)
(3.34936 -112.5 0)
(3.34936 -112.5 0.001)
(4.94692 -114.929 0)
(4.94692 -114.929 0.001)
(6.81566 -117.156 0)
(6.81566 -117.156 0.001)
(8.93031 -119.151 0)
(8.93031 -119.151 0.001)
(11.2623 -120.887 0)
(11.2623 -120.887 0.001)
(13.78 -122.341 0)
(13.78 -122.341 0.001)
(16.4495 -123.492 0)
(16.4495 -123.492 0.001)
(19.2346 -124.326 0)
(19.2346 -124.326 0.001)
(22.0977 -124.831 0)
(22.0977 -124.831 0.001)
)


// edges:

274
(
(1 0)
(0 4)
(5 1)
(4 6)
(7 5)
(6 8)
(9 7)
(8 10)
(11 9)
(10 12)
(13 11)
(12 14)
(15 13)
(14 16)
(17 15)
(16 18)
(19 17)
(18 20)
(21 19)
(20 22)
(23 21)
(22 24)
(25 23)
(24 26)
(27 25)
(26 28)
(29 27)
(28 30)
(31 29)
(30 32)
(33 31)
(32 34)
(35 33)
(34 36)
(37 35)
(36 38)
(39 37)
(38 40)
(41 39)
(40 42)
(43 41)
(42 44)
(45 43)
(44 46)
(47 45)
(46 48)
(49 47)
(48 50)
(51 49)
(52 53)
(54 55)
(53 56)
(57 54)
(56 58)
(59 57)
(58 60)
(61 59)
(60 62)
(63 61)
(62 64)
(65 63)
(64 66)
(67 65)
(66 68)
(69 67)
(68 70)
(71 69)
(70 72)
(73 71)
(72 74)
(75 73)
(74 76)
(77 75)
(76 78)
(79 77)
(78 80)
(81 79)
(80 82)
(83 81)
(82 84)
(85 83)
(84 0)
(1 85)
(50 86)
(87 51)
(86 88)
(89 87)
(88 90)
(91 89)
(90 92)
(93 91)
(92 94)
(95 93)
(94 96)
(97 95)
(96 98)
(99 97)
(98 100)
(101 99)
(100 102)
(103 101)
(102 104)
(105 103)
(104 106)
(107 105)
(106 108)
(109 107)
(108 110)
(111 109)
(110 112)
(113 111)
(112 114)
(115 113)
(114 116)
(117 115)
(116 118)
(119 117)
(118 120)
(121 119)
(120 122)
(123 121)
(122 124)
(125 123)
(124 126)
(127 125)
(126 128)
(129 127)
(128 130)
(131 129)
(130 132)
(133 131)
(132 134)
(135 133)
(134 136)
(137 135)
(136 52)
(55 137)
(3 2)
(2 138)
(139 3)
(138 140)
(141 139)
(140 142)
(143 141)
(142 144)
(145 143)
(144 146)
(147 145)
(146 148)
(149 147)
(148 150)
(151 149)
(150 152)
(153 151)
(152 154)
(155 153)
(154 156)
(157 155)
(156 158)
(159 157)
(158 160)
(161 159)
(160 162)
(163 161)
(162 164)
(165 163)
(164 166)
(167 165)
(166 168)
(169 167)
(168 170)
(171 169)
(170 172)
(173 171)
(172 174)
(175 173)
(174 176)
(177 175)
(176 178)
(179 177)
(178 180)
(181 179)
(180 182)
(183 181)
(182 184)
(185 183)
(186 187)
(188 189)
(187 190)
(191 188)
(190 192)
(193 191)
(192 194)
(195 193)
(194 196)
(197 195)
(196 198)
(199 197)
(198 200)
(201 199)
(200 202)
(203 201)
(202 204)
(205 203)
(204 206)
(207 205)
(206 208)
(209 207)
(208 210)
(211 209)
(210 212)
(213 211)
(212 214)
(215 213)
(214 216)
(217 215)
(216 218)
(219 217)
(218 2)
(3 219)
(184 220)
(221 185)
(220 222)
(223 221)
(222 224)
(225 223)
(224 226)
(227 225)
(226 228)
(229 227)
(228 230)
(231 229)
(230 232)
(233 231)
(232 234)
(235 233)
(234 236)
(237 235)
(236 238)
(239 237)
(238 240)
(241 239)
(240 242)
(243 241)
(242 244)
(245 243)
(244 246)
(247 245)
(246 248)
(249 247)
(248 250)
(251 249)
(250 252)
(253 251)
(252 254)
(255 253)
(254 256)
(257 255)
(256 258)
(259 257)
(258 260)
(261 259)
(260 262)
(263 261)
(262 264)
(265 263)
(264 266)
(267 265)
(266 268)
(269 267)
(268 270)
(271 269)
(270 186)
(189 271)
)

// * * * * * * * * * * * * * * * * * * * * * * * * * * * * * * * * * * * * * //


// ************************************************************************* //
