/*--------------------------------*- C++ -*----------------------------------*\
| =========                 |                                                 |
| \\      /  F ield         | OpenFOAM: The Open Source CFD Toolbox           |
|  \\    /   O peration     | Version:  2.3.1                                 |
|   \\  /    A nd           | Web:      www.OpenFOAM.org                      |
|    \\/     M anipulation  |                                                 |
\*---------------------------------------------------------------------------*/
FoamFile
{
    version     2.0;
    format      ascii;
    class       featureEdgeMesh;
    location    "constant/triSurface";
    object      surfacemesh.eMesh;
}
// * * * * * * * * * * * * * * * * * * * * * * * * * * * * * * * * * * * * * //


// points:

154
(
(0.599846 -0.100161 -0.96)
(0.599846 -0.100161 0.96)
(0.862157 0.206249 -0.96)
(0.86324 0.205686 -0.96)
(0.860976 0.206557 -0.96)
(0.225 -0.15 -0.96)
(0.225151 -0.147257 -0.96)
(0.225756 -0.143899 -0.96)
(0.859686 0.20659 -0.96)
(0.858389 0.206308 -0.96)
(0.81844 0.145466 -0.96)
(0.855476 0.203916 -0.96)
(0.24451 -0.12561 -0.96)
(0.244769 -0.125553 -0.96)
(0.239756 -0.127195 -0.96)
(0.239724 -0.127209 -0.96)
(0.856208 0.204893 -0.96)
(0.226162 -0.142467 -0.96)
(0.227871 -0.138368 -0.96)
(0.857197 0.205721 -0.96)
(0.865662 0.201255 -0.96)
(0.865551 0.20004 -0.96)
(0.2352 -0.129851 -0.96)
(0.625105 -0.0983903 -0.96)
(0.58052 -0.122682 -0.96)
(0.235029 -0.129978 -0.96)
(0.527862 -0.142405 -0.96)
(0.782687 0.0704625 -0.96)
(0.732419 6.78114e-05 -0.96)
(0.690614 -0.0502191 -0.96)
(0.464851 -0.157468 -0.96)
(0.657565 -0.0809703 -0.96)
(0.640594 -0.0920642 -0.96)
(0.450119 -0.124628 -0.96)
(0.526544 -0.115092 -0.96)
(0.228206 -0.137751 -0.96)
(0.230965 -0.133792 -0.96)
(0.23127 -0.133441 -0.96)
(0.661192 -0.0364116 -0.96)
(0.719043 0.0210202 -0.96)
(0.386948 -0.168085 -0.96)
(0.363791 -0.128223 -0.96)
(0.320765 -0.172839 -0.96)
(0.598586 -0.0987852 -0.96)
(0.597679 -0.0971111 -0.96)
(0.597318 -0.0959001 -0.96)
(0.597214 -0.0952849 -0.96)
(0.243899 -0.174244 -0.96)
(0.23888 -0.172391 -0.96)
(0.244178 -0.174313 -0.96)
(0.238368 -0.172129 -0.96)
(0.597161 -0.0946715 -0.96)
(0.597202 -0.0934336 -0.96)
(0.5973 -0.0928109 -0.96)
(0.233792 -0.169034 -0.96)
(0.230648 -0.165827 -0.96)
(0.234439 -0.169567 -0.96)
(0.229978 -0.164971 -0.96)
(0.263694 -0.125 -0.96)
(0.25 -0.175 -0.96)
(0.59765 -0.0915897 -0.96)
(0.597899 -0.0910039 -0.96)
(0.59836 -0.0901729 -0.96)
(0.598534 -0.0899112 -0.96)
(0.599322 -0.0889553 -0.96)
(0.777454 0.0893713 -0.96)
(0.22776 -0.161419 -0.96)
(0.227195 -0.160244 -0.96)
(0.225905 -0.156666 -0.96)
(0.225553 -0.155231 -0.96)
(0.25 -0.125 -0.96)
(0.225134 -0.152581 -0.96)
(0.225072 -0.151895 -0.96)
(0.865484 0.202533 -0.96)
(0.864993 0.203767 -0.96)
(0.247292 -0.125147 -0.96)
(0.247419 -0.125134 -0.96)
(0.864219 0.204846 -0.96)
(0.25 -0.125 0.96)
(0.263694 -0.125 0.96)
(0.520308 -0.116104 0.96)
(0.437061 -0.125634 0.96)
(0.352049 -0.128207 0.96)
(0.598973 -0.0992826 0.96)
(0.598195 -0.0904427 0.96)
(0.599322 -0.0889553 0.96)
(0.597449 -0.0921941 0.96)
(0.597202 -0.0934336 0.96)
(0.597156 -0.0940558 0.96)
(0.597161 -0.0946715 0.96)
(0.597318 -0.0959001 0.96)
(0.597473 -0.096511 0.96)
(0.597935 -0.0976941 0.96)
(0.598239 -0.098254 0.96)
(0.598775 -0.0990384 0.96)
(0.65232 -0.0444662 0.96)
(0.702457 0.00362493 0.96)
(0.762422 0.0706173 0.96)
(0.811639 0.1356 0.96)
(0.855476 0.203916 0.96)
(0.865662 0.201255 0.96)
(0.865551 0.20004 0.96)
(0.865484 0.202533 0.96)
(0.864993 0.203767 0.96)
(0.864219 0.204846 0.96)
(0.86324 0.205686 0.96)
(0.862157 0.206249 0.96)
(0.860976 0.206557 0.96)
(0.859686 0.20659 0.96)
(0.858389 0.206308 0.96)
(0.857197 0.205721 0.96)
(0.856208 0.204893 0.96)
(0.690013 -0.0508633 0.96)
(0.661579 -0.0778163 0.96)
(0.642422 -0.0910598 0.96)
(0.625105 -0.0983903 0.96)
(0.731481 -0.001159 0.96)
(0.795403 0.0894318 0.96)
(0.359931 -0.170402 0.96)
(0.25 -0.175 0.96)
(0.448352 -0.160312 0.96)
(0.513622 -0.146495 0.96)
(0.564829 -0.129413 0.96)
(0.596658 -0.114859 0.96)
(0.239756 -0.172805 0.96)
(0.239724 -0.17279 0.96)
(0.225 -0.15 0.96)
(0.225072 -0.148105 0.96)
(0.24451 -0.17439 0.96)
(0.244769 -0.174447 0.96)
(0.247292 -0.174853 0.96)
(0.230648 -0.134173 0.96)
(0.233792 -0.130966 0.96)
(0.225151 -0.152743 0.96)
(0.247419 -0.174866 0.96)
(0.229978 -0.135029 0.96)
(0.243899 -0.125756 0.96)
(0.244178 -0.125687 0.96)
(0.225756 -0.156101 0.96)
(0.22776 -0.138581 0.96)
(0.226162 -0.157533 0.96)
(0.23888 -0.127609 0.96)
(0.227871 -0.161632 0.96)
(0.227195 -0.139756 0.96)
(0.228206 -0.162249 0.96)
(0.238368 -0.127871 0.96)
(0.225905 -0.143334 0.96)
(0.230965 -0.166208 0.96)
(0.23127 -0.166559 0.96)
(0.225553 -0.144769 0.96)
(0.234439 -0.130433 0.96)
(0.235029 -0.170022 0.96)
(0.2352 -0.170149 0.96)
(0.225134 -0.147419 0.96)
)


// edges:

155
(
(2 3)
(4 2)
(5 6)
(6 7)
(8 4)
(9 8)
(10 11)
(12 13)
(14 12)
(15 14)
(11 16)
(17 18)
(7 17)
(19 9)
(16 19)
(20 21)
(22 15)
(23 24)
(25 22)
(24 26)
(27 28)
(28 29)
(26 30)
(29 31)
(31 32)
(33 34)
(18 35)
(36 37)
(35 36)
(38 39)
(37 25)
(30 40)
(34 0)
(41 33)
(40 42)
(0 43)
(43 44)
(45 46)
(44 45)
(47 48)
(49 47)
(48 50)
(46 51)
(52 53)
(51 52)
(54 55)
(56 54)
(55 57)
(58 41)
(42 59)
(53 60)
(60 61)
(61 62)
(63 64)
(62 63)
(32 23)
(64 38)
(39 65)
(50 56)
(57 66)
(65 10)
(66 67)
(68 69)
(67 68)
(21 27)
(70 58)
(69 71)
(72 5)
(71 72)
(73 20)
(74 73)
(75 76)
(76 70)
(59 49)
(77 74)
(3 77)
(13 75)
(78 79)
(80 1)
(81 80)
(82 81)
(79 82)
(1 83)
(84 85)
(86 84)
(87 86)
(88 87)
(89 88)
(90 89)
(91 90)
(92 91)
(93 92)
(94 93)
(83 94)
(85 95)
(95 96)
(96 97)
(97 98)
(98 99)
(100 101)
(102 100)
(103 102)
(104 103)
(105 104)
(106 105)
(107 106)
(108 107)
(109 108)
(110 109)
(111 110)
(99 111)
(112 113)
(114 115)
(113 114)
(116 112)
(117 116)
(101 117)
(118 119)
(120 118)
(121 120)
(122 121)
(123 122)
(115 123)
(124 125)
(126 127)
(128 124)
(129 128)
(130 129)
(131 132)
(133 126)
(134 130)
(119 134)
(135 131)
(136 137)
(138 133)
(139 135)
(140 138)
(141 136)
(142 140)
(143 139)
(144 142)
(145 141)
(146 143)
(147 144)
(148 147)
(149 146)
(150 145)
(151 148)
(152 151)
(153 149)
(127 153)
(125 152)
(132 150)
(137 78)
(1 0)
)

// * * * * * * * * * * * * * * * * * * * * * * * * * * * * * * * * * * * * * //


// ************************************************************************* //
