/*--------------------------------*- C++ -*----------------------------------*\
| =========                 |                                                 |
| \\      /  F ield         | OpenFOAM: The Open Source CFD Toolbox           |
|  \\    /   O peration     | Version:  2.3.1                                 |
|   \\  /    A nd           | Web:      www.OpenFOAM.org                      |
|    \\/     M anipulation  |                                                 |
\*---------------------------------------------------------------------------*/
FoamFile
{
    version     2.0;
    format      ascii;
    class       featureEdgeMesh;
    location    "constant/triSurface";
    object      surfacemesh.eMesh;
}
// * * * * * * * * * * * * * * * * * * * * * * * * * * * * * * * * * * * * * //


// points:

296
(
(275 -70 20)
(275 -70 0)
(480.564 167.99 20)
(480.564 167.99 0)
(22.0977 -75.169 20)
(25 -75 20)
(25 -75 0)
(22.0977 -75.169 0)
(19.2346 -75.6739 0)
(19.2346 -75.6739 20)
(16.4495 -76.5077 0)
(16.4495 -76.5077 20)
(13.78 -77.6592 0)
(13.78 -77.6592 20)
(11.2623 -79.1128 0)
(11.2623 -79.1128 20)
(8.93031 -80.8489 0)
(8.93031 -80.8489 20)
(6.81566 -82.844 0)
(6.81566 -82.844 20)
(4.94692 -85.071 0)
(4.94692 -85.071 20)
(3.34936 -87.5 0)
(3.34936 -87.5 20)
(2.0446 -90.098 0)
(2.0446 -90.098 20)
(1.05026 -92.8299 0)
(1.05026 -92.8299 20)
(0.379806 -95.6588 0)
(0.379806 -95.6588 20)
(0.042296 -98.5464 0)
(0.042296 -98.5464 20)
(0.042296 -101.454 0)
(0.042296 -101.454 20)
(0.379806 -104.341 0)
(0.379806 -104.341 20)
(1.05026 -107.17 0)
(1.05026 -107.17 20)
(2.0446 -109.902 0)
(2.0446 -109.902 20)
(3.34936 -112.5 0)
(3.34936 -112.5 20)
(4.94692 -114.929 0)
(4.94692 -114.929 20)
(6.81566 -117.156 0)
(6.81566 -117.156 20)
(8.93031 -119.151 0)
(8.93031 -119.151 20)
(11.2623 -120.887 0)
(11.2623 -120.887 20)
(13.78 -122.341 0)
(13.78 -122.341 20)
(16.4495 -123.492 0)
(16.4495 -123.492 20)
(19.2346 -124.326 0)
(19.2346 -124.326 20)
(22.0977 -124.831 0)
(22.0977 -124.831 20)
(25 -125 20)
(25 -125 0)
(263.46 -73.5732 20)
(263.46 -73.5732 0)
(251.825 -76.8216 20)
(251.825 -76.8216 0)
(240.103 -79.7427 20)
(240.103 -79.7427 0)
(228.304 -82.3341 20)
(228.304 -82.3341 0)
(216.437 -84.5938 20)
(216.437 -84.5938 0)
(204.511 -86.52 20)
(204.511 -86.52 0)
(192.536 -88.1113 20)
(192.536 -88.1113 0)
(180.521 -89.3664 20)
(180.521 -89.3664 0)
(168.475 -90.2843 20)
(168.475 -90.2843 0)
(156.409 -90.8642 20)
(156.409 -90.8642 0)
(144.331 -91.1058 20)
(144.331 -91.1058 0)
(132.251 -91.0088 20)
(132.251 -91.0088 0)
(120.178 -90.5732 20)
(120.178 -90.5732 0)
(108.123 -89.7996 20)
(108.123 -89.7996 0)
(96.0935 -88.6884 20)
(96.0935 -88.6884 0)
(84.1002 -87.2405 20)
(84.1002 -87.2405 0)
(72.1522 -85.4571 20)
(72.1522 -85.4571 0)
(60.2588 -83.3395 20)
(60.2588 -83.3395 0)
(48.4295 -80.8895 20)
(48.4295 -80.8895 0)
(36.6735 -78.1089 20)
(36.6735 -78.1089 0)
(275 -75 0)
(275.556 -74.6111 0)
(276.004 -74.1009 0)
(276.318 -73.4989 0)
(276.48 -72.8394 0)
(276.48 -72.1606 0)
(276.318 -71.5012 0)
(276.004 -70.8991 0)
(275.556 -70.3889 0)
(275.556 -70.3889 20)
(276.004 -70.8991 20)
(276.318 -71.5012 20)
(276.48 -72.1606 20)
(276.48 -72.8394 20)
(276.318 -73.4989 20)
(276.004 -74.1009 20)
(275.556 -74.6111 20)
(275 -75 20)
(40.0946 -124.837 20)
(40.0946 -124.837 0)
(55.1814 -124.323 20)
(55.1814 -124.323 0)
(70.252 -123.456 20)
(70.252 -123.456 0)
(85.2983 -122.239 20)
(85.2983 -122.239 0)
(100.312 -120.67 20)
(100.312 -120.67 0)
(115.285 -118.752 20)
(115.285 -118.752 0)
(130.21 -116.485 20)
(130.21 -116.485 0)
(145.077 -113.871 20)
(145.077 -113.871 0)
(159.879 -110.911 20)
(159.879 -110.911 0)
(174.609 -107.606 20)
(174.609 -107.606 0)
(189.257 -103.958 20)
(189.257 -103.958 0)
(203.816 -99.9697 20)
(203.816 -99.9697 0)
(218.278 -95.6429 20)
(218.278 -95.6429 0)
(232.635 -90.9798 20)
(232.635 -90.9798 0)
(246.88 -85.9832 20)
(246.88 -85.9832 0)
(261.004 -80.6556 20)
(261.004 -80.6556 0)
(474.93 157.303 20)
(474.93 157.303 0)
(469 146.779 20)
(469 146.779 0)
(462.777 136.425 20)
(462.777 136.425 0)
(456.266 126.249 20)
(456.266 126.249 0)
(449.472 116.26 20)
(449.472 116.26 0)
(442.401 106.465 20)
(442.401 106.465 0)
(435.059 96.8721 20)
(435.059 96.8721 0)
(427.451 87.4888 20)
(427.451 87.4888 0)
(419.582 78.3223 20)
(419.582 78.3223 0)
(411.46 69.3799 20)
(411.46 69.3799 0)
(403.09 60.6687 20)
(403.09 60.6687 0)
(394.48 52.1955 20)
(394.48 52.1955 0)
(385.635 43.9669 20)
(385.635 43.9669 0)
(376.564 35.9894 20)
(376.564 35.9894 0)
(367.272 28.2692 20)
(367.272 28.2692 0)
(357.768 20.8125 20)
(357.768 20.8125 0)
(348.058 13.625 20)
(348.058 13.625 0)
(338.151 6.71248 20)
(338.151 6.71248 0)
(328.054 0.0803156 20)
(328.054 0.0803156 0)
(317.775 -6.26628 20)
(317.775 -6.26628 0)
(307.322 -12.3223 20)
(307.322 -12.3223 0)
(484.099 164.454 0)
(484.217 165.123 0)
(484.173 165.8 0)
(483.97 166.448 0)
(483.618 167.028 0)
(483.137 167.508 0)
(482.557 167.86 0)
(481.909 168.064 0)
(481.232 168.108 0)
(481.232 168.108 20)
(481.909 168.064 20)
(482.557 167.86 20)
(483.137 167.508 20)
(483.618 167.028 20)
(483.97 166.448 20)
(484.173 165.8 20)
(484.217 165.123 20)
(484.099 164.454 20)
(353.236 -36.8892 20)
(342.678 -47.6777 20)
(342.678 -47.6777 0)
(353.236 -36.8892 0)
(363.54 -25.8574 20)
(363.54 -25.8574 0)
(373.584 -14.5882 20)
(373.584 -14.5882 0)
(383.363 -3.08786 20)
(383.363 -3.08786 0)
(392.87 8.63749 20)
(392.87 8.63749 0)
(402.101 20.5814 20)
(402.101 20.5814 0)
(411.051 32.7374 20)
(411.051 32.7374 0)
(419.716 45.0989 20)
(419.716 45.0989 0)
(428.089 57.6591 20)
(428.089 57.6591 0)
(436.167 70.4113 20)
(436.167 70.4113 0)
(443.946 83.3484 20)
(443.946 83.3484 0)
(451.421 96.4634 20)
(451.421 96.4634 0)
(458.587 109.749 20)
(458.587 109.749 0)
(465.442 123.199 20)
(465.442 123.199 0)
(471.981 136.804 20)
(471.981 136.804 0)
(478.201 150.559 20)
(478.201 150.559 0)
(305.39 -14.4941 20)
(305.39 -14.4941 0)
(303.722 -16.8756 0)
(303.722 -16.8756 20)
(302.342 -19.4345 0)
(302.342 -19.4345 20)
(301.269 -22.1364 0)
(301.269 -22.1364 20)
(300.516 -24.9446 0)
(300.516 -24.9446 20)
(300.095 -27.8211 0)
(300.095 -27.8211 20)
(300.011 -30.7271 0)
(300.011 -30.7271 20)
(300.264 -33.6233 0)
(300.264 -33.6233 20)
(300.852 -36.4705 0)
(300.852 -36.4705 20)
(301.766 -39.2302 0)
(301.766 -39.2302 20)
(302.995 -41.865 0)
(302.995 -41.865 20)
(304.521 -44.3394 0)
(304.521 -44.3394 20)
(306.324 -46.6199 0)
(306.324 -46.6199 20)
(308.38 -48.6756 0)
(308.38 -48.6756 20)
(310.661 -50.4788 0)
(310.661 -50.4788 20)
(313.135 -52.005 0)
(313.135 -52.005 20)
(315.77 -53.2337 0)
(315.77 -53.2337 20)
(318.53 -54.1481 0)
(318.53 -54.1481 20)
(321.377 -54.736 0)
(321.377 -54.736 20)
(324.273 -54.9894 0)
(324.273 -54.9894 20)
(327.179 -54.9049 0)
(327.179 -54.9049 20)
(330.055 -54.4835 0)
(330.055 -54.4835 20)
(332.864 -53.7311 0)
(332.864 -53.7311 20)
(335.565 -52.6577 0)
(335.565 -52.6577 20)
(338.124 -51.2779 0)
(338.124 -51.2779 20)
(340.506 -49.6104 0)
(340.506 -49.6104 20)
)


// edges:

298
(
(4 5)
(6 7)
(7 8)
(9 4)
(8 10)
(11 9)
(10 12)
(13 11)
(12 14)
(15 13)
(14 16)
(17 15)
(16 18)
(19 17)
(18 20)
(21 19)
(20 22)
(23 21)
(22 24)
(25 23)
(24 26)
(27 25)
(26 28)
(29 27)
(28 30)
(31 29)
(30 32)
(33 31)
(32 34)
(35 33)
(34 36)
(37 35)
(36 38)
(39 37)
(38 40)
(41 39)
(40 42)
(43 41)
(42 44)
(45 43)
(44 46)
(47 45)
(46 48)
(49 47)
(48 50)
(51 49)
(50 52)
(53 51)
(52 54)
(55 53)
(54 56)
(57 55)
(58 57)
(56 59)
(0 1)
(60 0)
(1 61)
(62 60)
(61 63)
(64 62)
(63 65)
(66 64)
(65 67)
(68 66)
(67 69)
(70 68)
(69 71)
(72 70)
(71 73)
(74 72)
(73 75)
(76 74)
(75 77)
(78 76)
(77 79)
(80 78)
(79 81)
(82 80)
(81 83)
(84 82)
(83 85)
(86 84)
(85 87)
(88 86)
(87 89)
(90 88)
(89 91)
(92 90)
(91 93)
(94 92)
(93 95)
(96 94)
(95 97)
(98 96)
(97 99)
(5 98)
(99 6)
(100 101)
(101 102)
(102 103)
(103 104)
(104 105)
(105 106)
(106 107)
(107 108)
(108 1)
(0 109)
(109 110)
(110 111)
(111 112)
(112 113)
(113 114)
(114 115)
(115 116)
(116 117)
(118 58)
(59 119)
(120 118)
(119 121)
(122 120)
(121 123)
(124 122)
(123 125)
(126 124)
(125 127)
(128 126)
(127 129)
(130 128)
(129 131)
(132 130)
(131 133)
(134 132)
(133 135)
(136 134)
(135 137)
(138 136)
(137 139)
(140 138)
(139 141)
(142 140)
(141 143)
(144 142)
(143 145)
(146 144)
(145 147)
(148 146)
(147 149)
(117 148)
(149 100)
(2 3)
(150 2)
(3 151)
(152 150)
(151 153)
(154 152)
(153 155)
(156 154)
(155 157)
(158 156)
(157 159)
(160 158)
(159 161)
(162 160)
(161 163)
(164 162)
(163 165)
(166 164)
(165 167)
(168 166)
(167 169)
(170 168)
(169 171)
(172 170)
(171 173)
(174 172)
(173 175)
(176 174)
(175 177)
(178 176)
(177 179)
(180 178)
(179 181)
(182 180)
(181 183)
(184 182)
(183 185)
(186 184)
(185 187)
(188 186)
(187 189)
(190 188)
(189 191)
(192 193)
(193 194)
(194 195)
(195 196)
(196 197)
(197 198)
(198 199)
(199 200)
(200 3)
(2 201)
(201 202)
(202 203)
(203 204)
(204 205)
(205 206)
(206 207)
(207 208)
(208 209)
(210 211)
(212 213)
(214 210)
(213 215)
(216 214)
(215 217)
(218 216)
(217 219)
(220 218)
(219 221)
(222 220)
(221 223)
(224 222)
(223 225)
(226 224)
(225 227)
(228 226)
(227 229)
(230 228)
(229 231)
(232 230)
(231 233)
(234 232)
(233 235)
(236 234)
(235 237)
(238 236)
(237 239)
(240 238)
(239 241)
(242 240)
(241 243)
(209 242)
(243 192)
(244 190)
(191 245)
(245 246)
(247 244)
(246 248)
(249 247)
(248 250)
(251 249)
(250 252)
(253 251)
(252 254)
(255 253)
(254 256)
(257 255)
(256 258)
(259 257)
(258 260)
(261 259)
(260 262)
(263 261)
(262 264)
(265 263)
(264 266)
(267 265)
(266 268)
(269 267)
(268 270)
(271 269)
(270 272)
(273 271)
(272 274)
(275 273)
(274 276)
(277 275)
(276 278)
(279 277)
(278 280)
(281 279)
(280 282)
(283 281)
(282 284)
(285 283)
(284 286)
(287 285)
(286 288)
(289 287)
(288 290)
(291 289)
(290 292)
(293 291)
(292 294)
(295 293)
(211 295)
(294 212)
)

// * * * * * * * * * * * * * * * * * * * * * * * * * * * * * * * * * * * * * //


// ************************************************************************* //
