/*--------------------------------*- C++ -*----------------------------------*\
| =========                 |                                                 |
| \\      /  F ield         | OpenFOAM: The Open Source CFD Toolbox           |
|  \\    /   O peration     | Version:  2.3.1                                 |
|   \\  /    A nd           | Web:      www.OpenFOAM.org                      |
|    \\/     M anipulation  |                                                 |
\*---------------------------------------------------------------------------*/
FoamFile
{
    version     2.0;
    format      ascii;
    class       extendedFeatureEdgeMesh;
    location    "constant/extendedFeatureEdgeMesh";
    object      surfacemesh.extendedFeatureEdgeMesh;
}
// * * * * * * * * * * * * * * * * * * * * * * * * * * * * * * * * * * * * * //

// points

166
(
(0.42 0.105 -0.48)
(0.42 0.105 0.48)
(0.235682 -0.0483137 -0.48)
(0.239639 -0.0507308 -0.48)
(0.235682 -0.0483137 0.48)
(0.239639 -0.0507308 0.48)
(0.234111 -0.0429935 -0.48)
(0.234415 -0.0416047 -0.48)
(0.025 -0.075 -0.48)
(0.0588969 -0.079068 -0.48)
(0.0132068 -0.0875 -0.48)
(0.0132071 -0.0874135 -0.48)
(0.0134456 -0.0850664 -0.48)
(0.2637 -0.0431157 -0.48)
(0.243358 -0.0505425 -0.48)
(0.240376 -0.0354185 -0.48)
(0.269032 -0.0264843 -0.48)
(0.234962 -0.0403537 -0.48)
(0.388564 0.047098 -0.48)
(0.366844 0.0239066 -0.48)
(0.023257 -0.0752251 -0.48)
(0.0237528 -0.0751356 -0.48)
(0.238253 -0.0366763 -0.48)
(0.23641 -0.038356 -0.48)
(0.343002 0.00302074 -0.48)
(0.347197 0.0176947 -0.48)
(0.37172 0.0397242 -0.48)
(0.0224826 -0.0754067 -0.48)
(0.408233 0.0728209 -0.48)
(0.393448 0.0643665 -0.48)
(0.206041 -0.0664608 -0.48)
(0.0135613 -0.0845419 -0.48)
(0.0141715 -0.0826805 -0.48)
(0.0214853 -0.0757195 -0.48)
(0.0201042 -0.0763129 -0.48)
(0.407691 0.0842582 -0.48)
(0.425 0.1 -0.48)
(0.0145476 -0.0818627 -0.48)
(0.425571 0.101502 -0.48)
(0.425362 0.100699 -0.48)
(0.425588 0.102355 -0.48)
(0.170973 -0.0793672 -0.48)
(0.0191923 -0.0768199 -0.48)
(0.182793 -0.0671173 -0.48)
(0.200828 -0.0617159 -0.48)
(0.314325 -0.0172551 -0.48)
(0.322993 0.000376639 -0.48)
(0.164442 -0.0716069 -0.48)
(0.0154089 -0.0804081 -0.48)
(0.0178842 -0.0777401 -0.48)
(0.135326 -0.0891405 -0.48)
(0.425404 0.103188 -0.48)
(0.425042 0.103936 -0.48)
(0.127261 -0.0777329 -0.48)
(0.0159883 -0.0796312 -0.48)
(0.0171173 -0.0784096 -0.48)
(0.0949878 -0.0964132 -0.48)
(0.093343 -0.0799816 -0.48)
(0.424549 0.104549 -0.48)
(0.423936 0.105042 -0.48)
(0.0599428 -0.099618 -0.48)
(0.025 -0.1 -0.48)
(0.423189 0.105404 -0.48)
(0.422355 0.105588 -0.48)
(0.0220676 -0.0994742 -0.48)
(0.0194502 -0.0983337 -0.48)
(0.0221206 -0.0994903 -0.48)
(0.421502 0.105571 -0.48)
(0.420699 0.105362 -0.48)
(0.297032 -0.0143429 -0.48)
(0.283702 -0.0342363 -0.48)
(0.0192705 -0.0982275 -0.48)
(0.0173063 -0.0967657 -0.48)
(0.0169733 -0.0964518 -0.48)
(0.0155286 -0.0947631 -0.48)
(0.0152977 -0.0944273 -0.48)
(0.0142328 -0.0924639 -0.48)
(0.0140985 -0.0921405 -0.48)
(0.0134665 -0.0900368 -0.48)
(0.23492 -0.0471811 -0.48)
(0.242139 -0.0508253 -0.48)
(0.0134111 -0.0897526 -0.48)
(0.24088 -0.050889 -0.48)
(0.234371 -0.0458694 -0.48)
(0.0132697 -0.088753 -0.48)
(0.234093 -0.0444448 -0.48)
(0.0134456 -0.0899336 0.48)
(0.0132071 -0.0875865 0.48)
(0.0155286 -0.0802369 0.48)
(0.0169733 -0.0785482 0.48)
(0.0220676 -0.0755258 0.48)
(0.0221206 -0.0755097 0.48)
(0.0152977 -0.0805727 0.48)
(0.0135613 -0.0904581 0.48)
(0.0141715 -0.0923195 0.48)
(0.0142328 -0.0825361 0.48)
(0.0145476 -0.0931373 0.48)
(0.0194502 -0.0766663 0.48)
(0.0140985 -0.0828594 0.48)
(0.0154089 -0.0945919 0.48)
(0.0159883 -0.0953688 0.48)
(0.0134665 -0.0849632 0.48)
(0.0192705 -0.0767725 0.48)
(0.0171173 -0.0965904 0.48)
(0.0178842 -0.0972598 0.48)
(0.0134111 -0.0852474 0.48)
(0.0132697 -0.086247 0.48)
(0.0191923 -0.0981801 0.48)
(0.0173063 -0.0782343 0.48)
(0.025 -0.075 0.48)
(0.0201042 -0.0986871 0.48)
(0.0132068 -0.0875 0.48)
(0.0214853 -0.0992805 0.48)
(0.0224826 -0.0995933 0.48)
(0.023257 -0.0997749 0.48)
(0.0237528 -0.0998644 0.48)
(0.025 -0.1 0.48)
(0.0620955 -0.0792886 0.48)
(0.0809069 -0.0800229 0.48)
(0.0997985 -0.079795 0.48)
(0.137332 -0.0764572 0.48)
(0.17074 -0.0701781 0.48)
(0.20387 -0.0607048 0.48)
(0.234415 -0.0416047 0.48)
(0.234962 -0.0403537 0.48)
(0.234111 -0.0429935 0.48)
(0.234093 -0.0444448 0.48)
(0.234371 -0.0458694 0.48)
(0.23492 -0.0471811 0.48)
(0.238253 -0.0366763 0.48)
(0.240376 -0.0354185 0.48)
(0.23641 -0.038356 0.48)
(0.263475 -0.0284801 0.48)
(0.286217 -0.0194601 0.48)
(0.315375 -0.00432248 0.48)
(0.342673 0.0141582 0.48)
(0.365321 0.0334654 0.48)
(0.385872 0.0551062 0.48)
(0.404413 0.0793473 0.48)
(0.425362 0.100699 0.48)
(0.425 0.1 0.48)
(0.425571 0.101502 0.48)
(0.425588 0.102355 0.48)
(0.425404 0.103188 0.48)
(0.425042 0.103936 0.48)
(0.424549 0.104549 0.48)
(0.423936 0.105042 0.48)
(0.423189 0.105404 0.48)
(0.422355 0.105588 0.48)
(0.421502 0.105571 0.48)
(0.420699 0.105362 0.48)
(0.273177 -0.0391119 0.48)
(0.243358 -0.0505425 0.48)
(0.302104 -0.0245587 0.48)
(0.328924 -0.00752118 0.48)
(0.353872 0.0120296 0.48)
(0.379118 0.0364444 0.48)
(0.401489 0.0633833 0.48)
(0.413926 0.0813898 0.48)
(0.24088 -0.050889 0.48)
(0.242139 -0.0508253 0.48)
(0.0620944 -0.099503 0.48)
(0.0992804 -0.0958239 0.48)
(0.135622 -0.0890726 0.48)
(0.175093 -0.0780254 0.48)
(0.208027 -0.0656259 0.48)
)

// edges

169
(
(6 7)
(8 9)
(10 11)
(11 12)
(13 14)
(15 16)
(7 17)
(18 19)
(20 21)
(21 8)
(22 15)
(17 23)
(23 22)
(19 24)
(25 26)
(27 20)
(28 18)
(26 29)
(3 30)
(31 32)
(12 31)
(33 27)
(34 33)
(29 35)
(36 28)
(32 37)
(38 39)
(40 38)
(30 41)
(42 34)
(43 44)
(24 45)
(46 25)
(47 43)
(37 48)
(49 42)
(41 50)
(51 40)
(52 51)
(53 47)
(54 55)
(48 54)
(55 49)
(50 56)
(44 2)
(57 53)
(58 52)
(59 58)
(56 60)
(9 57)
(60 61)
(62 59)
(63 62)
(64 65)
(66 64)
(67 63)
(68 67)
(35 0)
(0 68)
(39 36)
(69 46)
(45 70)
(65 71)
(72 73)
(71 72)
(16 69)
(70 13)
(73 74)
(74 75)
(75 76)
(77 78)
(76 77)
(2 79)
(61 66)
(14 80)
(78 81)
(80 82)
(82 3)
(79 83)
(84 10)
(81 84)
(85 6)
(83 85)
(86 87)
(88 89)
(90 91)
(92 88)
(93 86)
(94 93)
(95 92)
(96 94)
(97 90)
(98 95)
(99 96)
(100 99)
(101 98)
(102 97)
(103 100)
(104 103)
(105 101)
(106 105)
(107 104)
(108 102)
(91 109)
(110 107)
(111 106)
(112 110)
(113 112)
(114 113)
(115 114)
(89 108)
(116 115)
(87 111)
(109 117)
(117 118)
(118 119)
(119 120)
(120 121)
(121 122)
(122 4)
(123 124)
(125 123)
(126 125)
(127 126)
(128 127)
(4 128)
(129 130)
(131 129)
(124 131)
(130 132)
(132 133)
(133 134)
(134 135)
(135 136)
(136 137)
(137 138)
(1 0)
(138 1)
(139 140)
(141 139)
(142 141)
(143 142)
(144 143)
(145 144)
(146 145)
(147 146)
(148 147)
(149 148)
(150 149)
(1 150)
(151 152)
(153 151)
(154 153)
(155 154)
(156 155)
(157 156)
(158 157)
(140 158)
(159 5)
(160 159)
(152 160)
(161 116)
(162 161)
(163 162)
(164 163)
(165 164)
(5 165)
(4 2)
(5 3)
)

// concaveStart mixedStart nonFeatureStart
2 2 6
// internalStart flatStart openStart multipleStart
167 169 169 169
// normals

301
(
(0 -0 -1)
(-0.976898 0.213705 0)
(0 0 -1)
(0.119156 0.992876 0)
(0 0 -1)
(-0.999994 0.00346801 0)
(-0.994878 0.101081 -5.80027e-05)
(0 0 -1)
(0.342952 -0.939353 0)
(0 0 -1)
(-0.297638 0.954679 0.000261905)
(0 -0 -1)
(-0.916196 0.400731 0)
(0 -0 -1)
(0.729885 -0.68357 -0.000404699)
(0 0 -1)
(-0.177581 0.984106 8.1609e-05)
(-0.108085 0.994142 0)
(0 0 -1)
(-0.509789 0.860299 0)
(0 -0 -1)
(-0.809648 0.586916 0)
(0 0 -1)
(-0.673729 0.738978 0)
(0 -0 -1)
(0.658938 -0.752197 -0.000402249)
(0 0 -1)
(-0.66827 0.743919 0.000395565)
(0 0 -1)
(-0.228388 0.97357 1.83419e-05)
(0 -0 -1)
(0.794371 -0.607433 -0.000390707)
(0 0 -1)
(-0.750061 0.661368 0.000459975)
(0 0 -1)
(0.424017 -0.905654 -8.9702e-05)
(0 0 -1)
(-0.950237 0.311528 -1.4197e-05)
(-0.976536 0.215354 -1.89024e-06)
(0 0 -1)
(-0.299285 0.954164 -1.10251e-05)
(-0.394705 0.918808 5.39824e-05)
(0 -0 -1)
(-0.81307 0.582166 0.000201663)
(0 0 -1)
(0.851081 -0.525035 -0.000360916)
(0 0 -1)
(-0.908525 0.417829 -4.85412e-06)
(0 0 -1)
(0.967936 -0.251198 0)
(0.999801 -0.019941 0)
(0 -0 -1)
(0.34539 -0.938459 -0.000170611)
(0 0 -1)
(-0.485978 0.873971 -9.28321e-06)
(0 0 -1)
(-0.286918 0.957955 -9.96097e-05)
(0 -0 -1)
(0.57732 -0.816518 -0.000499945)
(0 0 -1)
(-0.581906 0.813256 0.000253739)
(0 0 -1)
(-0.237632 0.971355 0.000113289)
(0 0 -1)
(-0.86049 0.509467 -1.23232e-05)
(0 0 -1)
(-0.575386 0.817882 6.42984e-06)
(0 0 -1)
(0.264408 -0.964411 -1.32559e-05)
(0 0 -1)
(0.976473 0.21564 0)
(0.899897 0.436103 0)
(0 0 -1)
(-0.162571 0.986697 0.000394344)
(0 0 -1)
(-0.7344 0.678717 -1.21708e-05)
(-0.801595 0.597867 -6.60429e-06)
(0 -0 -1)
(-0.657612 0.753357 -8.14815e-06)
(0 0 -1)
(0.177433 -0.984133 -0.000189298)
(0 0 -1)
(-0.358899 0.933376 0.000154413)
(0 0 -1)
(-0.066155 0.997809 0.000250878)
(0 0 -1)
(0.780052 0.625715 0)
(0.625714 0.780053 0)
(0 0 -1)
(0.0910679 -0.995845 -8.48375e-05)
(0 0 -1)
(0.0265148 0.999648 0.000386453)
(0 0 -1)
(0.0109319 -0.99994 0)
(0 0 -1)
(0.436092 0.899902 0)
(0.215636 0.976474 0)
(0 0 -1)
(-0.399462 -0.91675 -6.54058e-05)
(-0.290323 -0.956929 6.80717e-06)
(0 0 -1)
(-0.0199154 0.999802 0)
(-0.251202 0.967935 0)
(0 -0 -1)
(-0.859971 0.510343 0)
(0 0 -1)
(-0.460521 0.887649 0)
(0 0 -1)
(0.887653 -0.460514 0)
(0 0 -1)
(-0.493216 0.869907 0.000344086)
(0 -0 -1)
(0.484954 -0.874539 -0.000479541)
(0 0 -1)
(-0.508551 -0.861032 1.14698e-06)
(0 0 -1)
(-0.686013 -0.727589 -2.1477e-06)
(-0.597028 -0.80222 -5.34688e-05)
(0 0 -1)
(-0.397833 0.917458 0.000408497)
(0 -0 -1)
(0.405735 -0.913991 -0.000193326)
(0 0 -1)
(-0.759879 -0.650064 -4.62988e-05)
(0 0 -1)
(-0.82391 -0.56672 -1.72732e-06)
(0 0 -1)
(-0.879042 -0.476745 -4.61392e-05)
(0 0 -1)
(-0.957716 -0.287716 -3.17218e-05)
(-0.923517 -0.383557 -1.26199e-06)
(0 0 -1)
(-0.829421 -0.558624 0)
(0 0 -1)
(-0.174318 -0.984689 -8.73836e-05)
(0 0 -1)
(0.226019 -0.974123 0)
(0 0 -1)
(-0.98154 -0.191259 -8.08747e-07)
(0 0 -1)
(0.050563 -0.998721 0)
(0 0 -1)
(-0.126494 -0.991967 0)
(0 0 -1)
(-0.92269 -0.385544 0)
(0 0 -1)
(-0.998744 -0.0500971 -4.20048e-06)
(-0.990137 -0.140103 9.14578e-06)
(0 -0 -1)
(-0.999923 0.0124021 0)
(-0.981472 -0.191604 0)
(-0.994878 -0.101081 5.80034e-05)
(0 0 1)
(-0.759881 0.650063 4.63021e-05)
(0 0 1)
(-0.2902 0.956966 -6.74929e-06)
(0 0 1)
(-0.82391 0.56672 1.73172e-06)
(0 0 1)
(-0.976536 -0.215354 1.89024e-06)
(0 0 1)
(-0.950237 -0.311527 1.41948e-05)
(-0.879041 0.476746 4.61404e-05)
(0 0 1)
(-0.908524 -0.417833 4.85144e-06)
(0 0 1)
(-0.399462 0.91675 6.53987e-05)
(-0.923517 0.383557 1.25901e-06)
(0 0 1)
(-0.86049 -0.509467 1.23272e-05)
(0 0 1)
(-0.801595 -0.597867 6.60893e-06)
(0 0 1)
(-0.957716 0.287716 3.17218e-05)
(-0.508551 0.861032 -1.14698e-06)
(0 0 1)
(-0.734402 -0.678715 1.21662e-05)
(-0.657608 -0.753361 8.14963e-06)
(0 0 1)
(-0.98154 0.191259 8.08747e-07)
(0 0 1)
(-0.990137 0.140102 -9.14598e-06)
(0 0 1)
(-0.575386 -0.817882 -6.42984e-06)
(0 0 1)
(-0.59703 0.802219 5.34731e-05)
(0 0 1)
(-0.174318 0.984689 8.73836e-05)
(0 0 1)
(-0.485984 -0.873968 9.28126e-06)
(0 0 1)
(-0.998744 0.0500974 4.20051e-06)
(-0.394705 -0.918808 -5.39896e-05)
(0 0 1)
(-0.299279 -0.954166 1.1022e-05)
(-0.228388 -0.97357 -1.83344e-05)
(0 0 1)
(-0.177595 -0.984104 -8.15837e-05)
(0 0 1)
(-0.686004 0.727597 2.14452e-06)
(-0.108085 -0.994142 0)
(-0.999994 -0.00346801 0)
(0.114844 0.993384 -0.000154387)
(0 0 1)
(0.0390071 0.999239 9.96332e-05)
(0 0 1)
(-0.0120626 0.999927 -0.000113277)
(0 0 1)
(-0.0885787 0.996069 -0.000394335)
(0 0 1)
(-0.18472 0.982791 -0.000250868)
(0 0 1)
(-0.274922 0.961467 -0.000386435)
(0 0 1)
(-0.362948 0.931809 0)
(0 0 1)
(-0.916196 0.400731 0)
(0 0 1)
(-0.976898 0.213705 0)
(-0.999923 0.0124021 0)
(0 0 1)
(-0.981472 -0.191604 0)
(-0.92269 -0.385544 0)
(0 0 1)
(-0.829421 -0.558624 0)
(0 0 1)
(-0.509789 0.860299 0)
(0 0 1)
(-0.673729 0.738978 0)
(0 0 1)
(-0.809648 0.586916 0)
(0 0 1)
(-0.28767 0.95773 0)
(0 0 1)
(-0.368692 0.929552 -0.000201633)
(0 0 1)
(-0.460759 0.887525 -0.000459983)
(0 0 1)
(-0.560614 0.828077 -0.000395516)
(0 0 1)
(-0.648746 0.761005 -0.000253718)
(0 0 1)
(-0.725131 0.688611 -0.000344039)
(0 0 1)
(-0.794299 0.607528 -0.000408511)
(0 0 1)
(-0.460521 0.887649 0)
(-0.854605 0.519278 -0.000261863)
(0 0 1)
(0.887653 -0.460514 0)
(0 0 1)
(0.967936 -0.251198 0)
(0 0 1)
(0.999801 -0.019941 0)
(0.976473 0.21564 -0)
(0 0 1)
(0.899897 0.436103 -0)
(0.780052 0.625715 -0)
(0 0 1)
(0.625714 0.780053 -0)
(0.436092 0.899902 -0)
(0 0 1)
(0.215636 0.976474 -0)
(-0.0199154 0.999802 0)
(0 0 1)
(-0.251202 0.967935 0)
(0 0 1)
(0.357937 -0.933746 0.000360914)
(0 0 1)
(0.449428 -0.893317 0.000390719)
(0 0 1)
(0.53621 -0.844084 0.000404694)
(0 0 1)
(0.616818 -0.787106 0.000402272)
(0 0 1)
(0.695169 -0.718847 0.000499911)
(0 0 1)
(0.769326 -0.638856 0.000479553)
(0 0 1)
(0.822796 -0.568337 0.000193339)
(0 0 1)
(0.859372 -0.511351 0)
(0 0 1)
(-0.126494 -0.991967 0)
(0 0 1)
(0.050563 -0.998721 0)
(0 0 1)
(0.226019 -0.974123 0)
(0 0 1)
(0.0133968 -0.99991 8.97315e-05)
(0 0 1)
(0.0984568 -0.995141 0.000170598)
(0 0 1)
(0.182651 -0.983178 1.32807e-05)
(0 0 1)
(0.269519 -0.962995 0.000189286)
(0 0 1)
(0.352347 -0.935869 8.48632e-05)
(0 0 1)
(0.426247 -0.904607 0)
(0 0 1)
)

// normal volume types

301
(
0
0
0
0
0
0
0
0
0
0
0
0
0
0
0
0
0
0
0
0
0
0
0
0
0
0
0
0
0
0
0
0
0
0
0
0
0
0
0
0
0
0
0
0
0
0
0
0
0
0
0
0
0
0
0
0
0
0
0
0
0
0
0
0
0
0
0
0
0
0
0
0
0
0
0
0
0
0
0
0
0
0
0
0
0
0
0
0
0
0
0
0
0
0
0
0
0
0
0
0
0
0
0
0
0
0
0
0
0
0
0
0
0
0
0
0
0
0
0
0
0
0
0
0
0
0
0
0
0
0
0
0
0
0
0
0
0
0
0
0
0
0
0
0
0
0
0
0
0
0
0
0
0
0
0
0
0
0
0
0
0
0
0
0
0
0
0
0
0
0
0
0
0
0
0
0
0
0
0
0
0
0
0
0
0
0
0
0
0
0
0
0
0
0
0
0
0
0
0
0
0
0
0
0
0
0
0
0
0
0
0
0
0
0
0
0
0
0
0
0
0
0
0
0
0
0
0
0
0
0
0
0
0
0
0
0
0
0
0
0
0
0
0
0
0
0
0
0
0
0
0
0
0
0
0
0
0
0
0
0
0
0
0
0
0
0
0
0
0
0
0
0
0
0
0
0
0
0
0
0
0
0
0
0
0
0
0
0
0
0
0
0
0
0
0
0
0
0
0
0
0
)

// normalDirections

169
(
2(1 -1)
2(1 -1)
2(1 -1)
2(1 -1)
2(1 -1)
2(1 -1)
2(1 -1)
2(1 -1)
2(1 -1)
2(1 -1)
2(1 -1)
2(1 -1)
2(1 -1)
2(1 -1)
2(1 -1)
2(1 -1)
2(1 -1)
2(1 -1)
2(1 -1)
2(1 -1)
2(1 -1)
2(1 -1)
2(1 -1)
2(1 -1)
2(1 -1)
2(1 -1)
2(1 -1)
2(1 -1)
2(1 -1)
2(1 -1)
2(1 -1)
2(1 -1)
2(1 -1)
2(1 -1)
2(1 -1)
2(1 -1)
2(1 -1)
2(1 -1)
2(1 -1)
2(1 -1)
2(1 -1)
2(1 -1)
2(1 -1)
2(1 -1)
2(1 -1)
2(1 -1)
2(1 -1)
2(1 -1)
2(1 -1)
2(1 -1)
2(1 -1)
2(1 -1)
2(1 -1)
2(1 -1)
2(1 -1)
2(1 -1)
2(1 -1)
2(1 -1)
2(1 -1)
2(1 -1)
2(1 -1)
2(1 -1)
2(1 -1)
2(1 -1)
2(1 -1)
2(1 -1)
2(1 -1)
2(1 -1)
2(1 -1)
2(1 -1)
2(1 -1)
2(1 -1)
2(1 -1)
2(1 -1)
2(1 -1)
2(1 -1)
2(1 -1)
2(1 -1)
2(1 -1)
2(1 -1)
2(1 -1)
2(1 -1)
2(1 -1)
2(1 -1)
2(1 -1)
2(1 -1)
2(1 -1)
2(1 -1)
2(1 -1)
2(1 -1)
2(1 -1)
2(1 -1)
2(1 -1)
2(1 -1)
2(1 -1)
2(1 -1)
2(1 -1)
2(1 -1)
2(1 -1)
2(1 -1)
2(1 -1)
2(1 -1)
2(1 -1)
2(1 -1)
2(1 -1)
2(1 -1)
2(1 -1)
2(1 -1)
2(1 -1)
2(1 -1)
2(1 -1)
2(1 -1)
2(1 -1)
2(1 -1)
2(1 -1)
2(1 -1)
2(1 -1)
2(1 -1)
2(1 -1)
2(1 -1)
2(1 -1)
2(1 -1)
2(1 -1)
2(1 -1)
2(1 -1)
2(1 -1)
2(1 -1)
2(1 -1)
2(1 -1)
2(1 -1)
2(1 -1)
2(1 -1)
2(1 -1)
2(1 -1)
2(1 -1)
2(1 -1)
2(1 -1)
2(1 -1)
2(1 -1)
2(1 -1)
2(1 -1)
2(1 -1)
2(1 -1)
2(1 -1)
2(1 -1)
2(1 -1)
2(1 -1)
2(1 -1)
2(1 -1)
2(1 -1)
2(1 -1)
2(1 -1)
2(1 -1)
2(1 -1)
2(1 -1)
2(1 -1)
2(1 -1)
2(1 -1)
2(1 -1)
2(1 -1)
2(1 -1)
2(1 -1)
2(1 -1)
2(1 -1)
2(1 -1)
2(1 -1)
2(1 -1)
2(1 -1)
2(1 -1)
)

// edgeNormals

169
(
2(0 1)
2(2 3)
2(4 5)
2(4 6)
2(7 8)
2(9 10)
2(11 12)
2(13 14)
2(15 16)
2(15 17)
2(18 19)
2(20 21)
2(22 23)
2(24 25)
2(26 27)
2(28 29)
2(30 31)
2(32 33)
2(34 35)
2(36 37)
2(36 38)
2(39 40)
2(39 41)
2(42 43)
2(44 45)
2(46 47)
2(48 49)
2(48 50)
2(51 52)
2(53 54)
2(55 56)
2(57 58)
2(59 60)
2(61 62)
2(63 64)
2(65 66)
2(67 68)
2(69 70)
2(69 71)
2(72 73)
2(74 75)
2(74 76)
2(77 78)
2(79 80)
2(81 82)
2(83 84)
2(85 86)
2(85 87)
2(88 89)
2(90 91)
2(92 93)
2(94 95)
2(94 96)
2(97 98)
2(97 99)
2(100 101)
2(100 102)
2(103 104)
2(105 106)
2(107 108)
2(109 110)
2(111 112)
2(113 114)
2(115 116)
2(115 117)
2(118 119)
2(120 121)
2(122 123)
2(124 125)
2(126 127)
2(128 129)
2(128 130)
2(131 132)
2(133 134)
2(135 136)
2(137 138)
2(139 140)
2(141 142)
2(143 144)
2(145 146)
2(145 147)
2(148 149)
2(148 150)
2(151 152)
2(153 154)
2(155 156)
2(157 158)
2(159 160)
2(161 160)
2(162 163)
2(164 165)
2(166 156)
2(167 168)
2(169 170)
2(171 172)
2(173 168)
2(174 175)
2(176 172)
2(177 178)
2(179 180)
2(181 182)
2(183 184)
2(185 186)
2(187 188)
2(189 190)
2(191 182)
2(192 193)
2(194 193)
2(195 196)
2(197 198)
2(199 186)
2(200 198)
2(201 152)
2(202 203)
2(204 205)
2(206 207)
2(208 209)
2(210 211)
2(212 213)
2(214 215)
2(216 217)
2(218 217)
2(219 220)
2(221 220)
2(222 223)
2(224 225)
2(226 227)
2(228 229)
2(230 231)
2(232 233)
2(234 235)
2(236 237)
2(238 239)
2(240 241)
2(242 243)
2(244 245)
2(104 246)
2(247 248)
2(249 250)
2(251 252)
2(253 252)
2(254 255)
2(256 255)
2(257 258)
2(259 258)
2(260 261)
2(262 261)
2(263 264)
2(265 264)
2(246 266)
2(267 268)
2(269 270)
2(271 272)
2(273 274)
2(275 276)
2(277 278)
2(279 280)
2(281 282)
2(283 284)
2(285 286)
2(287 288)
2(289 290)
2(291 292)
2(293 294)
2(295 296)
2(297 298)
2(299 300)
2(214 224)
2(283 299)
)

// featurePointNormals

6
(
3(103 104 106)
4(104 246 247 248)
4(81 82 132 214)
4(34 35 142 299)
3(214 215 224)
3(283 284 299)
)

// featurePointEdges

6
(
3(58 136 57)
3(137 149 136)
3(44 167 72)
3(77 168 18)
3(167 125 119)
3(168 166 158)
)

// regionEdges
0()


// ************************************************************************* //
