/*--------------------------------*- C++ -*----------------------------------*\
| =========                 |                                                 |
| \\      /  F ield         | OpenFOAM: The Open Source CFD Toolbox           |
|  \\    /   O peration     | Version:  2.3.1                                 |
|   \\  /    A nd           | Web:      www.OpenFOAM.org                      |
|    \\/     M anipulation  |                                                 |
\*---------------------------------------------------------------------------*/
FoamFile
{
    version     2.0;
    format      ascii;
    class       extendedFeatureEdgeMesh;
    location    "constant/extendedFeatureEdgeMesh";
    object      surfacemesh.extendedFeatureEdgeMesh;
}
// * * * * * * * * * * * * * * * * * * * * * * * * * * * * * * * * * * * * * //

// points

296
(
(275 -70 20)
(275 -70 0)
(480.564 167.99 20)
(480.564 167.99 0)
(22.0977 -75.169 20)
(25 -75 20)
(25 -75 0)
(22.0977 -75.169 0)
(19.2346 -75.6739 0)
(19.2346 -75.6739 20)
(16.4495 -76.5077 0)
(16.4495 -76.5077 20)
(13.78 -77.6592 0)
(13.78 -77.6592 20)
(11.2623 -79.1128 0)
(11.2623 -79.1128 20)
(8.93031 -80.8489 0)
(8.93031 -80.8489 20)
(6.81566 -82.844 0)
(6.81566 -82.844 20)
(4.94692 -85.071 0)
(4.94692 -85.071 20)
(3.34936 -87.5 0)
(3.34936 -87.5 20)
(2.0446 -90.098 0)
(2.0446 -90.098 20)
(1.05026 -92.8299 0)
(1.05026 -92.8299 20)
(0.379806 -95.6588 0)
(0.379806 -95.6588 20)
(0.042296 -98.5464 0)
(0.042296 -98.5464 20)
(0.042296 -101.454 0)
(0.042296 -101.454 20)
(0.379806 -104.341 0)
(0.379806 -104.341 20)
(1.05026 -107.17 0)
(1.05026 -107.17 20)
(2.0446 -109.902 0)
(2.0446 -109.902 20)
(3.34936 -112.5 0)
(3.34936 -112.5 20)
(4.94692 -114.929 0)
(4.94692 -114.929 20)
(6.81566 -117.156 0)
(6.81566 -117.156 20)
(8.93031 -119.151 0)
(8.93031 -119.151 20)
(11.2623 -120.887 0)
(11.2623 -120.887 20)
(13.78 -122.341 0)
(13.78 -122.341 20)
(16.4495 -123.492 0)
(16.4495 -123.492 20)
(19.2346 -124.326 0)
(19.2346 -124.326 20)
(22.0977 -124.831 0)
(22.0977 -124.831 20)
(25 -125 20)
(25 -125 0)
(263.46 -73.5732 20)
(263.46 -73.5732 0)
(251.825 -76.8216 20)
(251.825 -76.8216 0)
(240.103 -79.7427 20)
(240.103 -79.7427 0)
(228.304 -82.3341 20)
(228.304 -82.3341 0)
(216.437 -84.5938 20)
(216.437 -84.5938 0)
(204.511 -86.52 20)
(204.511 -86.52 0)
(192.536 -88.1113 20)
(192.536 -88.1113 0)
(180.521 -89.3664 20)
(180.521 -89.3664 0)
(168.475 -90.2843 20)
(168.475 -90.2843 0)
(156.409 -90.8642 20)
(156.409 -90.8642 0)
(144.331 -91.1058 20)
(144.331 -91.1058 0)
(132.251 -91.0088 20)
(132.251 -91.0088 0)
(120.178 -90.5732 20)
(120.178 -90.5732 0)
(108.123 -89.7996 20)
(108.123 -89.7996 0)
(96.0935 -88.6884 20)
(96.0935 -88.6884 0)
(84.1002 -87.2405 20)
(84.1002 -87.2405 0)
(72.1522 -85.4571 20)
(72.1522 -85.4571 0)
(60.2588 -83.3395 20)
(60.2588 -83.3395 0)
(48.4295 -80.8895 20)
(48.4295 -80.8895 0)
(36.6735 -78.1089 20)
(36.6735 -78.1089 0)
(275 -75 0)
(275.556 -74.6111 0)
(276.004 -74.1009 0)
(276.318 -73.4989 0)
(276.48 -72.8394 0)
(276.48 -72.1606 0)
(276.318 -71.5012 0)
(276.004 -70.8991 0)
(275.556 -70.3889 0)
(275.556 -70.3889 20)
(276.004 -70.8991 20)
(276.318 -71.5012 20)
(276.48 -72.1606 20)
(276.48 -72.8394 20)
(276.318 -73.4989 20)
(276.004 -74.1009 20)
(275.556 -74.6111 20)
(275 -75 20)
(40.0946 -124.837 20)
(40.0946 -124.837 0)
(55.1814 -124.323 20)
(55.1814 -124.323 0)
(70.252 -123.456 20)
(70.252 -123.456 0)
(85.2983 -122.239 20)
(85.2983 -122.239 0)
(100.312 -120.67 20)
(100.312 -120.67 0)
(115.285 -118.752 20)
(115.285 -118.752 0)
(130.21 -116.485 20)
(130.21 -116.485 0)
(145.077 -113.871 20)
(145.077 -113.871 0)
(159.879 -110.911 20)
(159.879 -110.911 0)
(174.609 -107.606 20)
(174.609 -107.606 0)
(189.257 -103.958 20)
(189.257 -103.958 0)
(203.816 -99.9697 20)
(203.816 -99.9697 0)
(218.278 -95.6429 20)
(218.278 -95.6429 0)
(232.635 -90.9798 20)
(232.635 -90.9798 0)
(246.88 -85.9832 20)
(246.88 -85.9832 0)
(261.004 -80.6556 20)
(261.004 -80.6556 0)
(474.93 157.303 20)
(474.93 157.303 0)
(469 146.779 20)
(469 146.779 0)
(462.777 136.425 20)
(462.777 136.425 0)
(456.266 126.249 20)
(456.266 126.249 0)
(449.472 116.26 20)
(449.472 116.26 0)
(442.401 106.465 20)
(442.401 106.465 0)
(435.059 96.8721 20)
(435.059 96.8721 0)
(427.451 87.4888 20)
(427.451 87.4888 0)
(419.582 78.3223 20)
(419.582 78.3223 0)
(411.46 69.3799 20)
(411.46 69.3799 0)
(403.09 60.6687 20)
(403.09 60.6687 0)
(394.48 52.1955 20)
(394.48 52.1955 0)
(385.635 43.9669 20)
(385.635 43.9669 0)
(376.564 35.9894 20)
(376.564 35.9894 0)
(367.272 28.2692 20)
(367.272 28.2692 0)
(357.768 20.8125 20)
(357.768 20.8125 0)
(348.058 13.625 20)
(348.058 13.625 0)
(338.151 6.71248 20)
(338.151 6.71248 0)
(328.054 0.0803156 20)
(328.054 0.0803156 0)
(317.775 -6.26628 20)
(317.775 -6.26628 0)
(307.322 -12.3223 20)
(307.322 -12.3223 0)
(484.099 164.454 0)
(484.217 165.123 0)
(484.173 165.8 0)
(483.97 166.448 0)
(483.618 167.028 0)
(483.137 167.508 0)
(482.557 167.86 0)
(481.909 168.064 0)
(481.232 168.108 0)
(481.232 168.108 20)
(481.909 168.064 20)
(482.557 167.86 20)
(483.137 167.508 20)
(483.618 167.028 20)
(483.97 166.448 20)
(484.173 165.8 20)
(484.217 165.123 20)
(484.099 164.454 20)
(353.236 -36.8892 20)
(342.678 -47.6777 20)
(342.678 -47.6777 0)
(353.236 -36.8892 0)
(363.54 -25.8574 20)
(363.54 -25.8574 0)
(373.584 -14.5882 20)
(373.584 -14.5882 0)
(383.363 -3.08786 20)
(383.363 -3.08786 0)
(392.87 8.63749 20)
(392.87 8.63749 0)
(402.101 20.5814 20)
(402.101 20.5814 0)
(411.051 32.7374 20)
(411.051 32.7374 0)
(419.716 45.0989 20)
(419.716 45.0989 0)
(428.089 57.6591 20)
(428.089 57.6591 0)
(436.167 70.4113 20)
(436.167 70.4113 0)
(443.946 83.3484 20)
(443.946 83.3484 0)
(451.421 96.4634 20)
(451.421 96.4634 0)
(458.587 109.749 20)
(458.587 109.749 0)
(465.442 123.199 20)
(465.442 123.199 0)
(471.981 136.804 20)
(471.981 136.804 0)
(478.201 150.559 20)
(478.201 150.559 0)
(305.39 -14.4941 20)
(305.39 -14.4941 0)
(303.722 -16.8756 0)
(303.722 -16.8756 20)
(302.342 -19.4345 0)
(302.342 -19.4345 20)
(301.269 -22.1364 0)
(301.269 -22.1364 20)
(300.516 -24.9446 0)
(300.516 -24.9446 20)
(300.095 -27.8211 0)
(300.095 -27.8211 20)
(300.011 -30.7271 0)
(300.011 -30.7271 20)
(300.264 -33.6233 0)
(300.264 -33.6233 20)
(300.852 -36.4705 0)
(300.852 -36.4705 20)
(301.766 -39.2302 0)
(301.766 -39.2302 20)
(302.995 -41.865 0)
(302.995 -41.865 20)
(304.521 -44.3394 0)
(304.521 -44.3394 20)
(306.324 -46.6199 0)
(306.324 -46.6199 20)
(308.38 -48.6756 0)
(308.38 -48.6756 20)
(310.661 -50.4788 0)
(310.661 -50.4788 20)
(313.135 -52.005 0)
(313.135 -52.005 20)
(315.77 -53.2337 0)
(315.77 -53.2337 20)
(318.53 -54.1481 0)
(318.53 -54.1481 20)
(321.377 -54.736 0)
(321.377 -54.736 20)
(324.273 -54.9894 0)
(324.273 -54.9894 20)
(327.179 -54.9049 0)
(327.179 -54.9049 20)
(330.055 -54.4835 0)
(330.055 -54.4835 20)
(332.864 -53.7311 0)
(332.864 -53.7311 20)
(335.565 -52.6577 0)
(335.565 -52.6577 20)
(338.124 -51.2779 0)
(338.124 -51.2779 20)
(340.506 -49.6104 0)
(340.506 -49.6104 20)
)

// edges

298
(
(4 5)
(6 7)
(7 8)
(9 4)
(8 10)
(11 9)
(10 12)
(13 11)
(12 14)
(15 13)
(14 16)
(17 15)
(16 18)
(19 17)
(18 20)
(21 19)
(20 22)
(23 21)
(22 24)
(25 23)
(24 26)
(27 25)
(26 28)
(29 27)
(28 30)
(31 29)
(30 32)
(33 31)
(32 34)
(35 33)
(34 36)
(37 35)
(36 38)
(39 37)
(38 40)
(41 39)
(40 42)
(43 41)
(42 44)
(45 43)
(44 46)
(47 45)
(46 48)
(49 47)
(48 50)
(51 49)
(50 52)
(53 51)
(52 54)
(55 53)
(54 56)
(57 55)
(58 57)
(56 59)
(0 1)
(60 0)
(1 61)
(62 60)
(61 63)
(64 62)
(63 65)
(66 64)
(65 67)
(68 66)
(67 69)
(70 68)
(69 71)
(72 70)
(71 73)
(74 72)
(73 75)
(76 74)
(75 77)
(78 76)
(77 79)
(80 78)
(79 81)
(82 80)
(81 83)
(84 82)
(83 85)
(86 84)
(85 87)
(88 86)
(87 89)
(90 88)
(89 91)
(92 90)
(91 93)
(94 92)
(93 95)
(96 94)
(95 97)
(98 96)
(97 99)
(5 98)
(99 6)
(100 101)
(101 102)
(102 103)
(103 104)
(104 105)
(105 106)
(106 107)
(107 108)
(108 1)
(0 109)
(109 110)
(110 111)
(111 112)
(112 113)
(113 114)
(114 115)
(115 116)
(116 117)
(118 58)
(59 119)
(120 118)
(119 121)
(122 120)
(121 123)
(124 122)
(123 125)
(126 124)
(125 127)
(128 126)
(127 129)
(130 128)
(129 131)
(132 130)
(131 133)
(134 132)
(133 135)
(136 134)
(135 137)
(138 136)
(137 139)
(140 138)
(139 141)
(142 140)
(141 143)
(144 142)
(143 145)
(146 144)
(145 147)
(148 146)
(147 149)
(117 148)
(149 100)
(2 3)
(150 2)
(3 151)
(152 150)
(151 153)
(154 152)
(153 155)
(156 154)
(155 157)
(158 156)
(157 159)
(160 158)
(159 161)
(162 160)
(161 163)
(164 162)
(163 165)
(166 164)
(165 167)
(168 166)
(167 169)
(170 168)
(169 171)
(172 170)
(171 173)
(174 172)
(173 175)
(176 174)
(175 177)
(178 176)
(177 179)
(180 178)
(179 181)
(182 180)
(181 183)
(184 182)
(183 185)
(186 184)
(185 187)
(188 186)
(187 189)
(190 188)
(189 191)
(192 193)
(193 194)
(194 195)
(195 196)
(196 197)
(197 198)
(198 199)
(199 200)
(200 3)
(2 201)
(201 202)
(202 203)
(203 204)
(204 205)
(205 206)
(206 207)
(207 208)
(208 209)
(210 211)
(212 213)
(214 210)
(213 215)
(216 214)
(215 217)
(218 216)
(217 219)
(220 218)
(219 221)
(222 220)
(221 223)
(224 222)
(223 225)
(226 224)
(225 227)
(228 226)
(227 229)
(230 228)
(229 231)
(232 230)
(231 233)
(234 232)
(233 235)
(236 234)
(235 237)
(238 236)
(237 239)
(240 238)
(239 241)
(242 240)
(241 243)
(209 242)
(243 192)
(244 190)
(191 245)
(245 246)
(247 244)
(246 248)
(249 247)
(248 250)
(251 249)
(250 252)
(253 251)
(252 254)
(255 253)
(254 256)
(257 255)
(256 258)
(259 257)
(258 260)
(261 259)
(260 262)
(263 261)
(262 264)
(265 263)
(264 266)
(267 265)
(266 268)
(269 267)
(268 270)
(271 269)
(270 272)
(273 271)
(272 274)
(275 273)
(274 276)
(277 275)
(276 278)
(279 277)
(278 280)
(281 279)
(280 282)
(283 281)
(282 284)
(285 283)
(284 286)
(287 285)
(286 288)
(289 287)
(288 290)
(291 289)
(290 292)
(293 291)
(292 294)
(295 293)
(211 295)
(294 212)
)

// concaveStart mixedStart nonFeatureStart
4 4 4
// internalStart flatStart openStart multipleStart
298 298 298 298
// normals

584
(
(-0.058146 0.998308 0)
(0 0 1)
(-0.058146 0.998308 0)
(0 0 -1)
(-0.173648 0.984808 0)
(-0.173648 0.984808 0)
(-0.286802 0.95799 0)
(0 0 -1)
(-0.286802 0.95799 0)
(-0 0 1)
(-0.396081 0.918216 0)
(0 0 -1)
(-0.396081 0.918216 0)
(-0 0 1)
(-0.5 0.866025 0)
(-0 0 -1)
(-0.5 0.866025 0)
(0 0 1)
(-0.597158 0.802123 0)
(0 0 -1)
(-0.597158 0.802123 0)
(0 0 1)
(-0.686241 0.727375 0)
(-0 0 -1)
(-0.686241 0.727375 0)
(0 0 1)
(-0.766045 0.642787 0)
(0 0 -1)
(-0.766045 0.642787 0)
(0 0 1)
(-0.835488 0.549509 0)
(0 0 -1)
(-0.835488 0.549509 0)
(0 0 1)
(-0.893633 0.448799 0)
(0 0 -1)
(-0.893633 0.448799 0)
(0 0 1)
(-0.939693 0.34202 0)
(0 0 -1)
(-0.939693 0.34202 0)
(0 0 1)
(-0.973045 0.230616 0)
(0 0 -1)
(-0.973045 0.230616 0)
(0 0 1)
(-0.993238 0.116093 0)
(0 0 -1)
(-0.993238 0.116093 0)
(0 0 1)
(-1 0 -0)
(0 0 -1)
(-1 -0 0)
(0 0 1)
(-0.993238 -0.116093 -0)
(0 0 -1)
(-0.993238 -0.116093 0)
(0 -0 1)
(-0.973045 -0.230616 -0)
(0 0 -1)
(-0.973045 -0.230616 0)
(-0 -0 1)
(-0.939693 -0.34202 -0)
(0 0 -1)
(-0.939693 -0.34202 0)
(-0 -0 1)
(-0.893633 -0.448799 -0)
(0 0 -1)
(-0.893633 -0.448799 0)
(-0 -0 1)
(-0.835488 -0.549509 -0)
(0 0 -1)
(-0.835488 -0.549509 0)
(-0 -0 1)
(-0.766045 -0.642787 -0)
(0 0 -1)
(-0.766045 -0.642787 0)
(-0 -0 1)
(-0.686241 -0.727375 -0)
(0 0 -1)
(-0.686241 -0.727375 0)
(-0 -0 1)
(-0.597158 -0.802123 -0)
(0 0 -1)
(-0.597158 -0.802123 0)
(-0 -0 1)
(-0.5 -0.866025 -0)
(0 0 -1)
(-0.5 -0.866025 0)
(-0 -0 1)
(-0.396081 -0.918216 -0)
(0 0 -1)
(-0.396081 -0.918216 0)
(-0 -0 1)
(-0.286802 -0.95799 -0)
(0 0 -1)
(-0.286802 -0.95799 0)
(-0 -0 1)
(-0.173648 -0.984808 -0)
(0 0 -1)
(-0.173648 -0.984808 0)
(-0 -0 1)
(-0.058146 -0.998308 -0)
(-0.058146 -0.998308 -0)
(-0.295786 0.955254 0)
(0.572916 0.819614 -0)
(0 0 1)
(-0.295786 0.955254 0)
(-0 0 -1)
(-0.268899 0.963168 0)
(0 0 1)
(-0.268899 0.963168 0)
(-0 0 -1)
(-0.241801 0.970326 0)
(-0 0 1)
(-0.241801 0.970326 0)
(0 -0 -1)
(-0.214513 0.976721 0)
(-0 0 1)
(-0.214513 0.976721 0)
(0 -0 -1)
(-0.187057 0.982349 0)
(-0 0 1)
(-0.187057 0.982349 0)
(0 -0 -1)
(-0.159454 0.987205 0)
(-0 0 1)
(-0.159454 0.987205 0)
(0 -0 -1)
(-0.131725 0.991286 0)
(-0 0 1)
(-0.131725 0.991286 0)
(0 -0 -1)
(-0.103893 0.994588 0)
(-0 0 1)
(-0.103893 0.994588 0)
(0 -0 -1)
(-0.0759802 0.997109 0)
(-0 0 1)
(-0.0759802 0.997109 0)
(0 -0 -1)
(-0.0480068 0.998847 0)
(-0 0 1)
(-0.0480068 0.998847 0)
(0 -0 -1)
(-0.0199962 0.9998 0)
(-0 0 1)
(-0.0199962 0.9998 0)
(0 -0 -1)
(0.00803082 0.999968 0)
(0 0 1)
(0.00803082 0.999968 0)
(-0 -0 -1)
(0.0360509 0.99935 0)
(0 0 1)
(0.0360509 0.99935 0)
(-0 -0 -1)
(0.0640426 0.997947 0)
(0 0 1)
(0.0640426 0.997947 0)
(-0 -0 -1)
(0.091985 0.99576 0)
(0 0 1)
(0.091985 0.99576 0)
(-0 0 -1)
(0.119853 0.992792 0)
(0 0 1)
(0.119853 0.992792 0)
(-0 0 -1)
(0.147629 0.989043 0)
(0 0 1)
(0.147629 0.989043 0)
(-0 0 -1)
(0.175289 0.984517 0)
(0 0 1)
(0.175289 0.984517 0)
(-0 0 -1)
(0.202811 0.979218 0)
(0 0 1)
(0.202811 0.979218 0)
(-0 0 -1)
(0.230172 0.97315 0)
(-0 0 1)
(0.230172 0.97315 0)
(0 0 -1)
(0.257354 0.966317 0)
(-0 0 1)
(0.257354 0.966317 0)
(0 0 -1)
(0.572916 -0.819614 0)
(0 0 -1)
(0.751433 -0.659809 0)
(0 0 -1)
(0.886824 -0.462107 0)
(0 0 -1)
(0.971293 -0.237884 0)
(-0 0 -1)
(1 0 0)
(-0 0 -1)
(0.971293 0.237887 0)
(-0 0 -1)
(0.886824 0.462107 0)
(-0 0 -1)
(0.751438 0.659804 0)
(-0 0 -1)
(0.572916 0.819614 0)
(0.572916 0.819614 -0)
(0.751438 0.659804 -0)
(0 0 1)
(0.886824 0.462107 -0)
(0 0 1)
(0.971293 0.237887 -0)
(0 0 1)
(1 0 0)
(0 0 1)
(0.971293 -0.237884 0)
(0 0 1)
(0.886824 -0.462107 0)
(0 -0 1)
(0.751433 -0.659809 0)
(0 0 1)
(0.572916 -0.819614 0)
(0 0 1)
(0.0107677 -0.999942 0)
(0 0 1)
(0.0107677 -0.999942 0)
(0 0 -1)
(0.0340893 -0.999419 0)
(0 0 1)
(0.0340893 -0.999419 0)
(0 0 -1)
(0.0573932 -0.998352 0)
(0 0 1)
(0.0573932 -0.998352 0)
(0 0 -1)
(0.0806657 -0.996741 0)
(0 0 1)
(0.0806657 -0.996741 0)
(0 0 -1)
(0.103894 -0.994588 0)
(0 0 1)
(0.103894 -0.994588 0)
(0 0 -1)
(0.127066 -0.991894 0)
(0 0 1)
(0.127066 -0.991894 0)
(0 0 -1)
(0.150168 -0.98866 0)
(0 0 1)
(0.150168 -0.98866 0)
(0 0 -1)
(0.173189 -0.984889 0)
(0 -0 1)
(0.173189 -0.984889 0)
(0 0 -1)
(0.196116 -0.980581 0)
(0 0 1)
(0.196116 -0.980581 0)
(0 0 -1)
(0.218936 -0.975739 0)
(0 0 1)
(0.218936 -0.975739 0)
(0 0 -1)
(0.241637 -0.970367 0)
(0 0 1)
(0.241637 -0.970367 0)
(0 0 -1)
(0.264206 -0.964466 0)
(0 0 1)
(0.264206 -0.964466 0)
(0 0 -1)
(0.286632 -0.958041 0)
(0 0 1)
(0.286632 -0.958041 0)
(0 0 -1)
(0.308902 -0.951094 0)
(0 0 1)
(0.308902 -0.951094 0)
(0 0 -1)
(0.331003 -0.94363 0)
(0 0 1)
(0.331003 -0.94363 0)
(0 0 -1)
(0.352925 -0.935652 0)
(0 0 1)
(0.352925 -0.935652 0)
(0 0 -1)
(0.374653 -0.927165 0)
(-0 0 1)
(0.374653 -0.927165 0)
(0 0 -1)
(-0.884618 0.466316 0)
(-0.174465 0.984663 0)
(0 0 1)
(-0.884618 0.466316 0)
(-0 0 -1)
(-0.871203 0.490923 0)
(0 0 1)
(-0.871203 0.490923 0)
(-0 0 -1)
(-0.857103 0.515144 0)
(0 0 1)
(-0.857103 0.515144 0)
(-0 0 -1)
(-0.84233 0.538962 0)
(-0 0 1)
(-0.84233 0.538962 0)
(0 0 -1)
(-0.826896 0.562355 0)
(-0 0 1)
(-0.826896 0.562355 0)
(0 0 -1)
(-0.81081 0.58531 0)
(-0 0 1)
(-0.81081 0.58531 0)
(0 0 -1)
(-0.794089 0.607801 0)
(-0 0 1)
(-0.794089 0.607801 0)
(0 0 -1)
(-0.776744 0.629817 0)
(-0 0 1)
(-0.776744 0.629817 0)
(0 0 -1)
(-0.75879 0.651336 0)
(-0 0 1)
(-0.75879 0.651336 0)
(0 0 -1)
(-0.740237 0.672346 0)
(-0 0 1)
(-0.740237 0.672346 0)
(0 0 -1)
(-0.721105 0.692826 0)
(-0 0 1)
(-0.721105 0.692826 0)
(0 0 -1)
(-0.701405 0.712763 0)
(-0 0 1)
(-0.701405 0.712763 0)
(0 0 -1)
(-0.681155 0.732139 0)
(-0 0 1)
(-0.681155 0.732139 0)
(0 0 -1)
(-0.66037 0.750941 0)
(-0 0 1)
(-0.66037 0.750941 0)
(0 0 -1)
(-0.639067 0.769151 0)
(-0 0 1)
(-0.639067 0.769151 0)
(0 0 -1)
(-0.617259 0.78676 0)
(-0 0 1)
(-0.617259 0.78676 0)
(0 0 -1)
(-0.59497 0.803748 0)
(-0 0 1)
(-0.59497 0.803748 0)
(0 0 -1)
(-0.572211 0.820106 0)
(-0 0 1)
(-0.572211 0.820106 0)
(0 0 -1)
(-0.549002 0.835821 0)
(-0 0 1)
(-0.549002 0.835821 0)
(0 0 -1)
(-0.525365 0.850877 0)
(-0 0 1)
(-0.525365 0.850877 0)
(0 0 -1)
(-0.501312 0.865267 0)
(-0 0 1)
(-0.501312 0.865267 0)
(0 0 -1)
(0.984665 -0.174457 0)
(0 -0 -1)
(0.997897 0.0648213 0)
(0.953852 0.300277 0)
(0 0 -1)
(0.85501 0.518612 0)
(0 0 -1)
(0.707118 0.707096 0)
(0 0 -1)
(0.518585 0.855026 0)
(0 0 -1)
(0.300325 0.953837 0)
(0 0 -1)
(0.064796 0.997899 0)
(0 0 -1)
(-0.174465 0.984663 0)
(0 0 -1)
(-0.174465 0.984663 0)
(-0 0 1)
(0.064796 0.997899 -0)
(0 0 1)
(0.300325 0.953837 -0)
(0 0 1)
(0.518585 0.855026 -0)
(0 0 1)
(0.707118 0.707096 -0)
(0 0 1)
(0.85501 0.518612 -0)
(0 0 1)
(0.953852 0.300277 -0)
(0 0 1)
(0.997897 0.0648213 -0)
(0 0 1)
(0.984665 -0.174457 0)
(0.71468 -0.699451 0)
(0 0 1)
(0.71468 -0.699451 0)
(0 0 -1)
(0.7308 -0.682592 0)
(0 0 1)
(0.7308 -0.682592 0)
(0 0 -1)
(0.746524 -0.665358 0)
(0 0 1)
(0.746524 -0.665358 0)
(0 0 -1)
(0.761841 -0.647764 0)
(0 0 1)
(0.761841 -0.647764 0)
(0 0 -1)
(0.776745 -0.629816 0)
(0 0 1)
(0.776745 -0.629816 0)
(0 0 -1)
(0.791224 -0.611526 0)
(0 0 1)
(0.791224 -0.611526 0)
(0 0 -1)
(0.805273 -0.592904 0)
(0 0 1)
(0.805273 -0.592904 0)
(0 0 -1)
(0.818885 -0.573958 0)
(0 0 1)
(0.818885 -0.573958 0)
(0 0 -1)
(0.83205 -0.5547 0)
(0 0 1)
(0.83205 -0.5547 0)
(0 0 -1)
(0.844763 -0.535141 0)
(0 0 1)
(0.844763 -0.535141 0)
(0 0 -1)
(0.857016 -0.51529 0)
(0 0 1)
(0.857016 -0.51529 0)
(0 0 -1)
(0.868803 -0.495159 0)
(0 0 1)
(0.868803 -0.495159 0)
(0 0 -1)
(0.880117 -0.474756 0)
(0 0 1)
(0.880117 -0.474756 0)
(0 0 -1)
(0.890951 -0.454099 0)
(0 0 1)
(0.890951 -0.454099 0)
(0 0 -1)
(0.901302 -0.433192 0)
(-0 0 1)
(0.901302 -0.433192 0)
(0 0 -1)
(0.911161 -0.412051 0)
(-0 0 1)
(0.911161 -0.412051 0)
(0 0 -1)
(0.920525 -0.390685 0)
(-0 0 1)
(0.920525 -0.390685 0)
(0 0 -1)
(-0.747027 0.664793 0)
(-0.747027 0.664793 0)
(-0.819149 0.57358 0)
(0 0 -1)
(-0.819149 0.57358 0)
(0 0 1)
(-0.880204 0.474596 0)
(0 0 -1)
(-0.880204 0.474596 0)
(0 0 1)
(-0.929345 0.369213 0)
(0 0 -1)
(-0.929345 0.369213 0)
(-0 0 1)
(-0.965927 0.258816 0)
(0 0 -1)
(-0.965927 0.258816 0)
(0 0 1)
(-0.989441 0.144933 0)
(0 0 -1)
(-0.989441 0.144933 0)
(0 0 1)
(-0.999577 0.0290769 0)
(0 0 -1)
(-0.999577 0.0290769 0)
(-0 0 1)
(-0.996195 -0.087147 -0)
(0 0 -1)
(-0.996195 -0.087147 0)
(0 0 1)
(-0.979339 -0.202226 -0)
(0 0 -1)
(-0.979339 -0.202226 0)
(0 0 1)
(-0.949242 -0.314545 -0)
(0 0 -1)
(-0.949242 -0.314545 0)
(-0 0 1)
(-0.90631 -0.422614 -0)
(0 0 -1)
(-0.90631 -0.422614 0)
(0 0 1)
(-0.851115 -0.524979 -0)
(0 0 -1)
(-0.851115 -0.524979 0)
(0 0 1)
(-0.784417 -0.620233 -0)
(0 0 -1)
(-0.784417 -0.620233 0)
(-0 0 1)
(-0.707108 -0.707105 -0)
(0 0 -1)
(-0.707108 -0.707105 0)
(0 0 1)
(-0.620235 -0.784416 -0)
(0 0 -1)
(-0.620235 -0.784416 0)
(0 0 1)
(-0.524977 -0.851116 -0)
(0 0 -1)
(-0.524977 -0.851116 0)
(-0 0 1)
(-0.422618 -0.906308 -0)
(0 0 -1)
(-0.422618 -0.906308 0)
(0 0 1)
(-0.314544 -0.949243 -0)
(0 -0 -1)
(-0.314544 -0.949243 0)
(0 0 1)
(-0.202217 -0.979341 -0)
(0 0 -1)
(-0.202217 -0.979341 0)
(-0 -0 1)
(-0.087156 -0.996195 -0)
(0 0 -1)
(-0.087156 -0.996195 0)
(0 0 1)
(0.0290849 -0.999577 0)
(0 0 -1)
(0.0290849 -0.999577 0)
(0 0 1)
(0.144931 -0.989442 0)
(0 0 -1)
(0.144931 -0.989442 0)
(0 -0 1)
(0.25882 -0.965926 0)
(-0 0 -1)
(0.25882 -0.965926 0)
(0 0 1)
(0.369206 -0.929348 0)
(0 0 -1)
(0.369206 -0.929348 0)
(0 0 1)
(0.474601 -0.880201 0)
(0 0 -1)
(0.474601 -0.880201 0)
(0 -0 1)
(0.573576 -0.819152 0)
(-0 0 -1)
(0.573576 -0.819152 0)
(0 0 1)
(0.664796 -0.747025 0)
(0 0 1)
(0.664796 -0.747025 0)
(0 0 -1)
)

// normal volume types

584
(
0
0
0
0
0
0
0
0
0
0
0
0
0
0
0
0
0
0
0
0
0
0
0
0
0
0
0
0
0
0
0
0
0
0
0
0
0
0
0
0
0
0
0
0
0
0
0
0
0
0
0
0
0
0
0
0
0
0
0
0
0
0
0
0
0
0
0
0
0
0
0
0
0
0
0
0
0
0
0
0
0
0
0
0
0
0
0
0
0
0
0
0
0
0
0
0
0
0
0
0
0
0
0
0
0
0
0
0
0
0
0
0
0
0
0
0
0
0
0
0
0
0
0
0
0
0
0
0
0
0
0
0
0
0
0
0
0
0
0
0
0
0
0
0
0
0
0
0
0
0
0
0
0
0
0
0
0
0
0
0
0
0
0
0
0
0
0
0
0
0
0
0
0
0
0
0
0
0
0
0
0
0
0
0
0
0
0
0
0
0
0
0
0
0
0
0
0
0
0
0
0
0
0
0
0
0
0
0
0
0
0
0
0
0
0
0
0
0
0
0
0
0
0
0
0
0
0
0
0
0
0
0
0
0
0
0
0
0
0
0
0
0
0
0
0
0
0
0
0
0
0
0
0
0
0
0
0
0
0
0
0
0
0
0
0
0
0
0
0
0
0
0
0
0
0
0
0
0
0
0
0
0
0
0
0
0
0
0
0
0
0
0
0
0
0
0
0
0
0
0
0
0
0
0
0
0
0
0
0
0
0
0
0
0
0
0
0
0
0
0
0
0
0
0
0
0
0
0
0
0
0
0
0
0
0
0
0
0
0
0
0
0
0
0
0
0
0
0
0
0
0
0
0
0
0
0
0
0
0
0
0
0
0
0
0
0
0
0
0
0
0
0
0
0
0
0
0
0
0
0
0
0
0
0
0
0
0
0
0
0
0
0
0
0
0
0
0
0
0
0
0
0
0
0
0
0
0
0
0
0
0
0
0
0
0
0
0
0
0
0
0
0
0
0
0
0
0
0
0
0
0
0
0
0
0
0
0
0
0
0
0
0
0
0
0
0
0
0
0
0
0
0
0
0
0
0
0
0
0
0
0
0
0
0
0
0
0
0
0
0
0
0
0
0
0
0
0
0
0
0
0
0
0
0
0
0
0
0
0
0
0
0
0
0
0
0
0
0
0
0
0
0
0
0
0
0
0
0
0
0
0
0
0
0
0
0
0
0
0
0
0
0
0
0
0
0
0
0
0
0
0
0
0
0
0
0
0
0
0
0
0
0
0
0
0
0
0
0
0
0
0
0
0
0
0
0
0
0
0
0
0
0
0
0
0
0
0
0
0
0
0
0
0
0
0
0
0
0
0
0
0
0
0
0
)

// normalDirections

298
(
2(1 -1)
2(1 -1)
2(1 -1)
2(1 -1)
2(1 -1)
2(1 -1)
2(1 -1)
2(1 -1)
2(1 -1)
2(1 -1)
2(1 -1)
2(1 -1)
2(1 -1)
2(1 -1)
2(1 -1)
2(1 -1)
2(1 -1)
2(1 -1)
2(1 -1)
2(1 -1)
2(1 -1)
2(1 -1)
2(1 -1)
2(1 -1)
2(1 -1)
2(1 -1)
2(1 -1)
2(1 -1)
2(1 -1)
2(1 -1)
2(1 -1)
2(1 -1)
2(1 -1)
2(1 -1)
2(1 -1)
2(1 -1)
2(1 -1)
2(1 -1)
2(1 -1)
2(1 -1)
2(1 -1)
2(1 -1)
2(1 -1)
2(1 -1)
2(1 -1)
2(1 -1)
2(1 -1)
2(1 -1)
2(1 -1)
2(1 -1)
2(1 -1)
2(1 -1)
2(1 -1)
2(1 -1)
2(1 -1)
2(1 -1)
2(1 -1)
2(1 -1)
2(1 -1)
2(1 -1)
2(1 -1)
2(1 -1)
2(1 -1)
2(1 -1)
2(1 -1)
2(1 -1)
2(1 -1)
2(1 -1)
2(1 -1)
2(1 -1)
2(1 -1)
2(1 -1)
2(1 -1)
2(1 -1)
2(1 -1)
2(1 -1)
2(1 -1)
2(1 -1)
2(1 -1)
2(1 -1)
2(1 -1)
2(1 -1)
2(1 -1)
2(1 -1)
2(1 -1)
2(1 -1)
2(1 -1)
2(1 -1)
2(1 -1)
2(1 -1)
2(1 -1)
2(1 -1)
2(1 -1)
2(1 -1)
2(1 -1)
2(1 -1)
2(1 -1)
2(1 -1)
2(1 -1)
2(1 -1)
2(1 -1)
2(1 -1)
2(1 -1)
2(1 -1)
2(1 -1)
2(1 -1)
2(1 -1)
2(1 -1)
2(1 -1)
2(1 -1)
2(1 -1)
2(1 -1)
2(1 -1)
2(1 -1)
2(1 -1)
2(1 -1)
2(1 -1)
2(1 -1)
2(1 -1)
2(1 -1)
2(1 -1)
2(1 -1)
2(1 -1)
2(1 -1)
2(1 -1)
2(1 -1)
2(1 -1)
2(1 -1)
2(1 -1)
2(1 -1)
2(1 -1)
2(1 -1)
2(1 -1)
2(1 -1)
2(1 -1)
2(1 -1)
2(1 -1)
2(1 -1)
2(1 -1)
2(1 -1)
2(1 -1)
2(1 -1)
2(1 -1)
2(1 -1)
2(1 -1)
2(1 -1)
2(1 -1)
2(1 -1)
2(1 -1)
2(1 -1)
2(1 -1)
2(1 -1)
2(1 -1)
2(1 -1)
2(1 -1)
2(1 -1)
2(1 -1)
2(1 -1)
2(1 -1)
2(1 -1)
2(1 -1)
2(1 -1)
2(1 -1)
2(1 -1)
2(1 -1)
2(1 -1)
2(1 -1)
2(1 -1)
2(1 -1)
2(1 -1)
2(1 -1)
2(1 -1)
2(1 -1)
2(1 -1)
2(1 -1)
2(1 -1)
2(1 -1)
2(1 -1)
2(1 -1)
2(1 -1)
2(1 -1)
2(1 -1)
2(1 -1)
2(1 -1)
2(1 -1)
2(1 -1)
2(1 -1)
2(1 -1)
2(1 -1)
2(1 -1)
2(1 -1)
2(1 -1)
2(1 -1)
2(1 -1)
2(1 -1)
2(1 -1)
2(1 -1)
2(1 -1)
2(1 -1)
2(1 -1)
2(1 -1)
2(1 -1)
2(1 -1)
2(1 -1)
2(1 -1)
2(1 -1)
2(1 -1)
2(1 -1)
2(1 -1)
2(1 -1)
2(1 -1)
2(1 -1)
2(1 -1)
2(1 -1)
2(1 -1)
2(1 -1)
2(1 -1)
2(1 -1)
2(1 -1)
2(1 -1)
2(1 -1)
2(1 -1)
2(1 -1)
2(1 -1)
2(1 -1)
2(1 -1)
2(1 -1)
2(1 -1)
2(1 -1)
2(1 -1)
2(1 -1)
2(1 -1)
2(1 -1)
2(1 -1)
2(1 -1)
2(1 -1)
2(1 -1)
2(1 -1)
2(1 -1)
2(1 -1)
2(1 -1)
2(1 -1)
2(1 -1)
2(1 -1)
2(1 -1)
2(1 -1)
2(1 -1)
2(1 -1)
2(1 -1)
2(1 -1)
2(1 -1)
2(1 -1)
2(1 -1)
2(1 -1)
2(1 -1)
2(1 -1)
2(1 -1)
2(1 -1)
2(1 -1)
2(1 -1)
2(1 -1)
2(1 -1)
2(1 -1)
2(1 -1)
2(1 -1)
2(1 -1)
2(1 -1)
2(1 -1)
2(1 -1)
2(1 -1)
2(1 -1)
2(1 -1)
2(1 -1)
2(1 -1)
2(1 -1)
2(1 -1)
2(1 -1)
2(1 -1)
2(1 -1)
2(1 -1)
2(1 -1)
2(1 -1)
2(1 -1)
2(1 -1)
2(1 -1)
2(1 -1)
2(1 -1)
2(1 -1)
2(1 -1)
2(1 -1)
2(1 -1)
2(1 -1)
2(1 -1)
2(1 -1)
2(1 -1)
2(1 -1)
2(1 -1)
2(1 -1)
)

// edgeNormals

298
(
2(0 1)
2(2 3)
2(4 3)
2(5 1)
2(6 7)
2(8 9)
2(10 11)
2(12 13)
2(14 15)
2(16 17)
2(18 19)
2(20 21)
2(22 23)
2(24 25)
2(26 27)
2(28 29)
2(30 31)
2(32 33)
2(34 35)
2(36 37)
2(38 39)
2(40 41)
2(42 43)
2(44 45)
2(46 47)
2(48 49)
2(50 51)
2(52 53)
2(54 55)
2(56 57)
2(58 59)
2(60 61)
2(62 63)
2(64 65)
2(66 67)
2(68 69)
2(70 71)
2(72 73)
2(74 75)
2(76 77)
2(78 79)
2(80 81)
2(82 83)
2(84 85)
2(86 87)
2(88 89)
2(90 91)
2(92 93)
2(94 95)
2(96 97)
2(98 99)
2(100 101)
2(102 101)
2(103 99)
2(104 105)
2(104 106)
2(107 108)
2(109 110)
2(111 112)
2(113 114)
2(115 116)
2(117 118)
2(119 120)
2(121 122)
2(123 124)
2(125 126)
2(127 128)
2(129 130)
2(131 132)
2(133 134)
2(135 136)
2(137 138)
2(139 140)
2(141 142)
2(143 144)
2(145 146)
2(147 148)
2(149 150)
2(151 152)
2(153 154)
2(155 156)
2(157 158)
2(159 160)
2(161 162)
2(163 164)
2(165 166)
2(167 168)
2(169 170)
2(171 172)
2(173 174)
2(175 176)
2(177 178)
2(179 180)
2(181 182)
2(183 184)
2(185 186)
2(187 188)
2(189 190)
2(191 192)
2(193 194)
2(195 196)
2(197 198)
2(199 200)
2(201 202)
2(203 204)
2(205 108)
2(206 106)
2(207 208)
2(209 210)
2(211 212)
2(213 214)
2(215 216)
2(217 218)
2(219 220)
2(221 222)
2(223 224)
2(225 226)
2(227 228)
2(229 230)
2(231 232)
2(233 234)
2(235 236)
2(237 238)
2(239 240)
2(241 242)
2(243 244)
2(245 246)
2(247 248)
2(249 250)
2(251 252)
2(253 254)
2(255 256)
2(257 258)
2(259 260)
2(261 262)
2(263 264)
2(265 266)
2(267 268)
2(269 270)
2(271 272)
2(273 274)
2(275 276)
2(277 278)
2(279 280)
2(281 282)
2(283 284)
2(285 286)
2(287 288)
2(289 290)
2(291 292)
2(291 293)
2(294 295)
2(296 297)
2(298 299)
2(300 301)
2(302 303)
2(304 305)
2(306 307)
2(308 309)
2(310 311)
2(312 313)
2(314 315)
2(316 317)
2(318 319)
2(320 321)
2(322 323)
2(324 325)
2(326 327)
2(328 329)
2(330 331)
2(332 333)
2(334 335)
2(336 337)
2(338 339)
2(340 341)
2(342 343)
2(344 345)
2(346 347)
2(348 349)
2(350 351)
2(352 353)
2(354 355)
2(356 357)
2(358 359)
2(360 361)
2(362 363)
2(364 365)
2(366 367)
2(368 369)
2(370 371)
2(372 373)
2(374 375)
2(376 377)
2(378 377)
2(379 380)
2(381 382)
2(383 384)
2(385 386)
2(387 388)
2(389 390)
2(391 392)
2(393 394)
2(395 396)
2(397 398)
2(399 400)
2(401 402)
2(403 404)
2(405 406)
2(407 408)
2(409 408)
2(410 411)
2(412 413)
2(414 415)
2(416 417)
2(418 419)
2(420 421)
2(422 423)
2(424 425)
2(426 427)
2(428 429)
2(430 431)
2(432 433)
2(434 435)
2(436 437)
2(438 439)
2(440 441)
2(442 443)
2(444 445)
2(446 447)
2(448 449)
2(450 451)
2(452 453)
2(454 455)
2(456 457)
2(458 459)
2(460 461)
2(462 463)
2(464 465)
2(466 467)
2(468 469)
2(470 471)
2(472 473)
2(474 475)
2(476 477)
2(478 373)
2(479 375)
2(480 481)
2(482 483)
2(484 485)
2(486 487)
2(488 489)
2(490 491)
2(492 493)
2(494 495)
2(496 497)
2(498 499)
2(500 501)
2(502 503)
2(504 505)
2(506 507)
2(508 509)
2(510 511)
2(512 513)
2(514 515)
2(516 517)
2(518 519)
2(520 521)
2(522 523)
2(524 525)
2(526 527)
2(528 529)
2(530 531)
2(532 533)
2(534 535)
2(536 537)
2(538 539)
2(540 541)
2(542 543)
2(544 545)
2(546 547)
2(548 549)
2(550 551)
2(552 553)
2(554 555)
2(556 557)
2(558 559)
2(560 561)
2(562 563)
2(564 565)
2(566 567)
2(568 569)
2(570 571)
2(572 573)
2(574 575)
2(576 577)
2(578 579)
2(580 581)
2(582 583)
)

// featurePointNormals

4
(
3(104 105 106)
3(104 105 108)
3(291 292 293)
3(291 292 295)
)

// featurePointEdges

4
(
3(54 106 55)
3(56 105 54)
3(149 201 150)
3(151 200 149)
)

// regionEdges
0()


// ************************************************************************* //
