/*--------------------------------*- C++ -*----------------------------------*\
| =========                 |                                                 |
| \\      /  F ield         | OpenFOAM: The Open Source CFD Toolbox           |
|  \\    /   O peration     | Version:  2.3.1                                 |
|   \\  /    A nd           | Web:      www.OpenFOAM.org                      |
|    \\/     M anipulation  |                                                 |
\*---------------------------------------------------------------------------*/
FoamFile
{
    version     2.0;
    format      ascii;
    class       featureEdgeMesh;
    location    "constant/triSurface";
    object      surfacemesh.eMesh;
}
// * * * * * * * * * * * * * * * * * * * * * * * * * * * * * * * * * * * * * //


// points:

166
(
(0.42 0.105 -0.48)
(0.42 0.105 0.48)
(0.235682 -0.0483137 -0.48)
(0.239639 -0.0507308 -0.48)
(0.235682 -0.0483137 0.48)
(0.239639 -0.0507308 0.48)
(0.234111 -0.0429935 -0.48)
(0.234415 -0.0416047 -0.48)
(0.025 -0.075 -0.48)
(0.0588969 -0.079068 -0.48)
(0.0132068 -0.0875 -0.48)
(0.0132071 -0.0874135 -0.48)
(0.0134456 -0.0850664 -0.48)
(0.2637 -0.0431157 -0.48)
(0.243358 -0.0505425 -0.48)
(0.240376 -0.0354185 -0.48)
(0.269032 -0.0264843 -0.48)
(0.234962 -0.0403537 -0.48)
(0.388564 0.047098 -0.48)
(0.366844 0.0239066 -0.48)
(0.023257 -0.0752251 -0.48)
(0.0237528 -0.0751356 -0.48)
(0.238253 -0.0366763 -0.48)
(0.23641 -0.038356 -0.48)
(0.343002 0.00302074 -0.48)
(0.347197 0.0176947 -0.48)
(0.37172 0.0397242 -0.48)
(0.0224826 -0.0754067 -0.48)
(0.408233 0.0728209 -0.48)
(0.393448 0.0643665 -0.48)
(0.206041 -0.0664608 -0.48)
(0.0135613 -0.0845419 -0.48)
(0.0141715 -0.0826805 -0.48)
(0.0214853 -0.0757195 -0.48)
(0.0201042 -0.0763129 -0.48)
(0.407691 0.0842582 -0.48)
(0.425 0.1 -0.48)
(0.0145476 -0.0818627 -0.48)
(0.425571 0.101502 -0.48)
(0.425362 0.100699 -0.48)
(0.425588 0.102355 -0.48)
(0.170973 -0.0793672 -0.48)
(0.0191923 -0.0768199 -0.48)
(0.182793 -0.0671173 -0.48)
(0.200828 -0.0617159 -0.48)
(0.314325 -0.0172551 -0.48)
(0.322993 0.000376639 -0.48)
(0.164442 -0.0716069 -0.48)
(0.0154089 -0.0804081 -0.48)
(0.0178842 -0.0777401 -0.48)
(0.135326 -0.0891405 -0.48)
(0.425404 0.103188 -0.48)
(0.425042 0.103936 -0.48)
(0.127261 -0.0777329 -0.48)
(0.0159883 -0.0796312 -0.48)
(0.0171173 -0.0784096 -0.48)
(0.0949878 -0.0964132 -0.48)
(0.093343 -0.0799816 -0.48)
(0.424549 0.104549 -0.48)
(0.423936 0.105042 -0.48)
(0.0599428 -0.099618 -0.48)
(0.025 -0.1 -0.48)
(0.423189 0.105404 -0.48)
(0.422355 0.105588 -0.48)
(0.0220676 -0.0994742 -0.48)
(0.0194502 -0.0983337 -0.48)
(0.0221206 -0.0994903 -0.48)
(0.421502 0.105571 -0.48)
(0.420699 0.105362 -0.48)
(0.297032 -0.0143429 -0.48)
(0.283702 -0.0342363 -0.48)
(0.0192705 -0.0982275 -0.48)
(0.0173063 -0.0967657 -0.48)
(0.0169733 -0.0964518 -0.48)
(0.0155286 -0.0947631 -0.48)
(0.0152977 -0.0944273 -0.48)
(0.0142328 -0.0924639 -0.48)
(0.0140985 -0.0921405 -0.48)
(0.0134665 -0.0900368 -0.48)
(0.23492 -0.0471811 -0.48)
(0.242139 -0.0508253 -0.48)
(0.0134111 -0.0897526 -0.48)
(0.24088 -0.050889 -0.48)
(0.234371 -0.0458694 -0.48)
(0.0132697 -0.088753 -0.48)
(0.234093 -0.0444448 -0.48)
(0.0134456 -0.0899336 0.48)
(0.0132071 -0.0875865 0.48)
(0.0155286 -0.0802369 0.48)
(0.0169733 -0.0785482 0.48)
(0.0220676 -0.0755258 0.48)
(0.0221206 -0.0755097 0.48)
(0.0152977 -0.0805727 0.48)
(0.0135613 -0.0904581 0.48)
(0.0141715 -0.0923195 0.48)
(0.0142328 -0.0825361 0.48)
(0.0145476 -0.0931373 0.48)
(0.0194502 -0.0766663 0.48)
(0.0140985 -0.0828594 0.48)
(0.0154089 -0.0945919 0.48)
(0.0159883 -0.0953688 0.48)
(0.0134665 -0.0849632 0.48)
(0.0192705 -0.0767725 0.48)
(0.0171173 -0.0965904 0.48)
(0.0178842 -0.0972598 0.48)
(0.0134111 -0.0852474 0.48)
(0.0132697 -0.086247 0.48)
(0.0191923 -0.0981801 0.48)
(0.0173063 -0.0782343 0.48)
(0.025 -0.075 0.48)
(0.0201042 -0.0986871 0.48)
(0.0132068 -0.0875 0.48)
(0.0214853 -0.0992805 0.48)
(0.0224826 -0.0995933 0.48)
(0.023257 -0.0997749 0.48)
(0.0237528 -0.0998644 0.48)
(0.025 -0.1 0.48)
(0.0620955 -0.0792886 0.48)
(0.0809069 -0.0800229 0.48)
(0.0997985 -0.079795 0.48)
(0.137332 -0.0764572 0.48)
(0.17074 -0.0701781 0.48)
(0.20387 -0.0607048 0.48)
(0.234415 -0.0416047 0.48)
(0.234962 -0.0403537 0.48)
(0.234111 -0.0429935 0.48)
(0.234093 -0.0444448 0.48)
(0.234371 -0.0458694 0.48)
(0.23492 -0.0471811 0.48)
(0.238253 -0.0366763 0.48)
(0.240376 -0.0354185 0.48)
(0.23641 -0.038356 0.48)
(0.263475 -0.0284801 0.48)
(0.286217 -0.0194601 0.48)
(0.315375 -0.00432248 0.48)
(0.342673 0.0141582 0.48)
(0.365321 0.0334654 0.48)
(0.385872 0.0551062 0.48)
(0.404413 0.0793473 0.48)
(0.425362 0.100699 0.48)
(0.425 0.1 0.48)
(0.425571 0.101502 0.48)
(0.425588 0.102355 0.48)
(0.425404 0.103188 0.48)
(0.425042 0.103936 0.48)
(0.424549 0.104549 0.48)
(0.423936 0.105042 0.48)
(0.423189 0.105404 0.48)
(0.422355 0.105588 0.48)
(0.421502 0.105571 0.48)
(0.420699 0.105362 0.48)
(0.273177 -0.0391119 0.48)
(0.243358 -0.0505425 0.48)
(0.302104 -0.0245587 0.48)
(0.328924 -0.00752118 0.48)
(0.353872 0.0120296 0.48)
(0.379118 0.0364444 0.48)
(0.401489 0.0633833 0.48)
(0.413926 0.0813898 0.48)
(0.24088 -0.050889 0.48)
(0.242139 -0.0508253 0.48)
(0.0620944 -0.099503 0.48)
(0.0992804 -0.0958239 0.48)
(0.135622 -0.0890726 0.48)
(0.175093 -0.0780254 0.48)
(0.208027 -0.0656259 0.48)
)


// edges:

169
(
(6 7)
(8 9)
(10 11)
(11 12)
(13 14)
(15 16)
(7 17)
(18 19)
(20 21)
(21 8)
(22 15)
(17 23)
(23 22)
(19 24)
(25 26)
(27 20)
(28 18)
(26 29)
(3 30)
(31 32)
(12 31)
(33 27)
(34 33)
(29 35)
(36 28)
(32 37)
(38 39)
(40 38)
(30 41)
(42 34)
(43 44)
(24 45)
(46 25)
(47 43)
(37 48)
(49 42)
(41 50)
(51 40)
(52 51)
(53 47)
(54 55)
(48 54)
(55 49)
(50 56)
(44 2)
(57 53)
(58 52)
(59 58)
(56 60)
(9 57)
(60 61)
(62 59)
(63 62)
(64 65)
(66 64)
(67 63)
(68 67)
(35 0)
(0 68)
(39 36)
(69 46)
(45 70)
(65 71)
(72 73)
(71 72)
(16 69)
(70 13)
(73 74)
(74 75)
(75 76)
(77 78)
(76 77)
(2 79)
(61 66)
(14 80)
(78 81)
(80 82)
(82 3)
(79 83)
(84 10)
(81 84)
(85 6)
(83 85)
(86 87)
(88 89)
(90 91)
(92 88)
(93 86)
(94 93)
(95 92)
(96 94)
(97 90)
(98 95)
(99 96)
(100 99)
(101 98)
(102 97)
(103 100)
(104 103)
(105 101)
(106 105)
(107 104)
(108 102)
(91 109)
(110 107)
(111 106)
(112 110)
(113 112)
(114 113)
(115 114)
(89 108)
(116 115)
(87 111)
(109 117)
(117 118)
(118 119)
(119 120)
(120 121)
(121 122)
(122 4)
(123 124)
(125 123)
(126 125)
(127 126)
(128 127)
(4 128)
(129 130)
(131 129)
(124 131)
(130 132)
(132 133)
(133 134)
(134 135)
(135 136)
(136 137)
(137 138)
(1 0)
(138 1)
(139 140)
(141 139)
(142 141)
(143 142)
(144 143)
(145 144)
(146 145)
(147 146)
(148 147)
(149 148)
(150 149)
(1 150)
(151 152)
(153 151)
(154 153)
(155 154)
(156 155)
(157 156)
(158 157)
(140 158)
(159 5)
(160 159)
(152 160)
(161 116)
(162 161)
(163 162)
(164 163)
(165 164)
(5 165)
(4 2)
(5 3)
)

// * * * * * * * * * * * * * * * * * * * * * * * * * * * * * * * * * * * * * //


// ************************************************************************* //
